(PID.TID 0000.0001) 
(PID.TID 0000.0001) // ======================================================
(PID.TID 0000.0001) //                      MITgcm UV
(PID.TID 0000.0001) //                      =========
(PID.TID 0000.0001) // ======================================================
(PID.TID 0000.0001) // execution environment starting up...
(PID.TID 0000.0001) 
(PID.TID 0000.0001) // MITgcmUV version:  checkpoint65d
(PID.TID 0000.0001) // Build user:        hugke729
(PID.TID 0000.0001) // Build host:        hugke729
(PID.TID 0000.0001) // Build date:        Mon Apr 10 14:21:54 PDT 2017
(PID.TID 0000.0001) 
(PID.TID 0000.0001) // =======================================================
(PID.TID 0000.0001) // Execution Environment parameter file "eedata"
(PID.TID 0000.0001) // =======================================================
(PID.TID 0000.0001) ># Example "eedata" file
(PID.TID 0000.0001) ># Lines beginning "#" are comments
(PID.TID 0000.0001) ># nTx - No. threads per process in X
(PID.TID 0000.0001) ># nTy - No. threads per process in Y
(PID.TID 0000.0001) > &EEPARMS
(PID.TID 0000.0001) > /
(PID.TID 0000.0001) ># Note: Some systems use & as the
(PID.TID 0000.0001) ># namelist terminator. Other systems
(PID.TID 0000.0001) ># use a / character (as shown here).
(PID.TID 0000.0001) 
(PID.TID 0000.0001) // =======================================================
(PID.TID 0000.0001) // Computational Grid Specification ( see files "SIZE.h" )
(PID.TID 0000.0001) //                                  ( and "eedata"       )
(PID.TID 0000.0001) // =======================================================
(PID.TID 0000.0001)      nPx =    1 ; /* No. processes in X */
(PID.TID 0000.0001)      nPy =    1 ; /* No. processes in Y */
(PID.TID 0000.0001)      nSx =    1 ; /* No. tiles in X per process */
(PID.TID 0000.0001)      nSy =    1 ; /* No. tiles in Y per process */
(PID.TID 0000.0001)      sNx =  200 ; /* Tile size in X */
(PID.TID 0000.0001)      sNy =    1 ; /* Tile size in Y */
(PID.TID 0000.0001)      OLx =    2 ; /* Tile overlap distance in X */
(PID.TID 0000.0001)      OLy =    2 ; /* Tile overlap distance in Y */
(PID.TID 0000.0001)      nTx =    1 ; /* No. threads in X per process */
(PID.TID 0000.0001)      nTy =    1 ; /* No. threads in Y per process */
(PID.TID 0000.0001)       Nr =  100 ; /* No. levels in the vertical   */
(PID.TID 0000.0001)       Nx =  200 ; /* Total domain size in X ( = nPx*nSx*sNx ) */
(PID.TID 0000.0001)       Ny =    1 ; /* Total domain size in Y ( = nPy*nSy*sNy ) */
(PID.TID 0000.0001)   nTiles =    1 ; /* Total no. tiles per process ( = nSx*nSy ) */
(PID.TID 0000.0001)   nProcs =    1 ; /* Total no. processes ( = nPx*nPy ) */
(PID.TID 0000.0001) nThreads =    1 ; /* Total no. threads per process ( = nTx*nTy ) */
(PID.TID 0000.0001) usingMPI =    F ; /* Flag used to control whether MPI is in use */
(PID.TID 0000.0001)                   /*  note: To execute a program with MPI calls */
(PID.TID 0000.0001)                   /*  it must be launched appropriately e.g     */
(PID.TID 0000.0001)                   /*  "mpirun -np 64 ......"                    */
(PID.TID 0000.0001) useCoupler=    F ;/* Flag used to control communications with   */
(PID.TID 0000.0001)                   /*  other model components, through a coupler */
(PID.TID 0000.0001) debugMode =    F ; /* print debug msg. (sequence of S/R calls)  */
(PID.TID 0000.0001) printMapIncludesZeros=    F ; /* print zeros in Std.Output maps */
(PID.TID 0000.0001) maxLengthPrt1D=   65 /* maxLength of 1D array printed to StdOut */
(PID.TID 0000.0001) 
(PID.TID 0000.0001) // ======================================================
(PID.TID 0000.0001) // Mapping of tiles to threads
(PID.TID 0000.0001) // ======================================================
(PID.TID 0000.0001) // -o- Thread   1, tiles (   1:   1,   1:   1)
(PID.TID 0000.0001) 
(PID.TID 0000.0001) // ======================================================
(PID.TID 0000.0001) // Tile <-> Tile connectvity table
(PID.TID 0000.0001) // ======================================================
(PID.TID 0000.0001) // Tile number: 000001 (process no. = 000000)
(PID.TID 0000.0001) //        WEST: Tile = 000001, Process = 000000, Comm = put
(PID.TID 0000.0001) //                bi = 000001, bj = 000001
(PID.TID 0000.0001) //        EAST: Tile = 000001, Process = 000000, Comm = put
(PID.TID 0000.0001) //                bi = 000001, bj = 000001
(PID.TID 0000.0001) //       SOUTH: Tile = 000001, Process = 000000, Comm = put
(PID.TID 0000.0001) //                bi = 000001, bj = 000001
(PID.TID 0000.0001) //       NORTH: Tile = 000001, Process = 000000, Comm = put
(PID.TID 0000.0001) //                bi = 000001, bj = 000001
(PID.TID 0000.0001) 
(PID.TID 0000.0001)  INI_PARMS: opening model parameter file "data"
(PID.TID 0000.0001)  OPEN_COPY_DATA_FILE: opening file data
(PID.TID 0000.0001) // =======================================================
(PID.TID 0000.0001) // Parameter file "data"
(PID.TID 0000.0001) // =======================================================
(PID.TID 0000.0001) ># ====================
(PID.TID 0000.0001) ># | Model parameters |
(PID.TID 0000.0001) ># ====================
(PID.TID 0000.0001) >#
(PID.TID 0000.0001) ># See src/ini_parms.F for possible parameters.
(PID.TID 0000.0001) >#
(PID.TID 0000.0001) ># Continuous equation parameters
(PID.TID 0000.0001) > &PARM01
(PID.TID 0000.0001) > tRefFile='Tref.bin'
(PID.TID 0000.0001) > sRef= 25*35.,
(PID.TID 0000.0001) > viscAz=1.E-5,
(PID.TID 0000.0001) > viscAh=1.E-4,
(PID.TID 0000.0001) > no_slip_sides=.FALSE.,
(PID.TID 0000.0001) > no_slip_bottom=.FALSE.,
(PID.TID 0000.0001) > viscA4=0.E12,
(PID.TID 0000.0001) > diffKhT=1.E-4,
(PID.TID 0000.0001) > diffKzT=1.E-5,
(PID.TID 0000.0001) > diffKhS=1.E3,
(PID.TID 0000.0001) > diffKzS=1.E-5,
(PID.TID 0000.0001) > f0=0.E-4,
(PID.TID 0000.0001) > beta=0.0E-11,
(PID.TID 0000.0001) > tAlpha=2.E-4,
(PID.TID 0000.0001) > sBeta =0.E-4,
(PID.TID 0000.0001) > gravity=9.81,
(PID.TID 0000.0001) > gBaro=9.81,
(PID.TID 0000.0001) > rigidLid=.FALSE.,
(PID.TID 0000.0001) > implicitFreeSurface=.TRUE.,
(PID.TID 0000.0001) > eosType='LINEAR',
(PID.TID 0000.0001) > nonHydrostatic=.FALSE.,
(PID.TID 0000.0001) > readBinaryPrec=64,
(PID.TID 0000.0001) > useSingleCpuIO=.TRUE.
(PID.TID 0000.0001) > writeBinaryPrec=64,
(PID.TID 0000.0001) > writeStatePrec=64,
(PID.TID 0000.0001) > saltStepping=.FALSE.,
(PID.TID 0000.0001) ># minimum cell fraction.  This reduces steppiness..
(PID.TID 0000.0001) >  hFacMin=0.1,
(PID.TID 0000.0001) >  exactConserv=.FALSE.,
(PID.TID 0000.0001) >  implicitDiffusion=.TRUE.
(PID.TID 0000.0001) >  implicitViscosity=.TRUE.
(PID.TID 0000.0001) ># Superbee on:
(PID.TID 0000.0001) > tempAdvScheme=77,
(PID.TID 0000.0001) > staggerTimeStep=.TRUE.,
(PID.TID 0000.0001) >/
(PID.TID 0000.0001) >
(PID.TID 0000.0001) ># Elliptic solver parameters
(PID.TID 0000.0001) > &PARM02
(PID.TID 0000.0001) > cg2dMaxIters=1000,
(PID.TID 0000.0001) > cg2dTargetResidual=1.E-13,
(PID.TID 0000.0001) > cg3dMaxIters=400,
(PID.TID 0000.0001) > cg3dTargetResidual=1.E-13,
(PID.TID 0000.0001) >/
(PID.TID 0000.0001) >
(PID.TID 0000.0001) ># Time stepping parameters
(PID.TID 0000.0001) > &PARM03
(PID.TID 0000.0001) > niter0=0,
(PID.TID 0000.0001) ># times are in s
(PID.TID 0000.0001) > startTime=0,
(PID.TID 0000.0001) > endTime=108000,
(PID.TID 0000.0001) > deltaT=15,
(PID.TID 0000.0001) > abEps=0.1,
(PID.TID 0000.0001) ># once per tide checkpoint...
(PID.TID 0000.0001) > pChkptFreq=21600,
(PID.TID 0000.0001) > chkptFreq=0.0,
(PID.TID 0000.0001) > dumpFreq=7200,
(PID.TID 0000.0001) > monitorFreq=7200,
(PID.TID 0000.0001) ># Forcing for boundary condition files
(PID.TID 0000.0001) > periodicExternalForcing=.FALSE.,
(PID.TID 0000.0001) >/
(PID.TID 0000.0001) >
(PID.TID 0000.0001) ># Gridding parameters
(PID.TID 0000.0001) > &PARM04
(PID.TID 0000.0001) > usingCartesianGrid=.TRUE.,
(PID.TID 0000.0001) > usingSphericalPolarGrid=.FALSE.,
(PID.TID 0000.0001) > delXfile='delXvar.bin',
(PID.TID 0000.0001) > delY=5.e3,
(PID.TID 0000.0001) > delRfile = 'delZvar.bin',
(PID.TID 0000.0001) >/
(PID.TID 0000.0001) >
(PID.TID 0000.0001) ># Input datasets
(PID.TID 0000.0001) > &PARM05
(PID.TID 0000.0001) > bathyFile='topo.bin',
(PID.TID 0000.0001) > hydrogThetaFile='T0.bin',
(PID.TID 0000.0001) > checkIniTemp=.FALSE.,
(PID.TID 0000.0001) > uVelInitFile='U0.bin',
(PID.TID 0000.0001) > /
(PID.TID 0000.0001) 
(PID.TID 0000.0001)  INI_PARMS ; starts to read PARM01
(PID.TID 0000.0001)  INI_PARMS ; read PARM01 : OK
(PID.TID 0000.0001)  INI_PARMS ; starts to read PARM02
(PID.TID 0000.0001)  INI_PARMS ; read PARM02 : OK
(PID.TID 0000.0001)  INI_PARMS ; starts to read PARM03
(PID.TID 0000.0001)  INI_PARMS ; read PARM03 : OK
(PID.TID 0000.0001)  INI_PARMS ; starts to read PARM04
(PID.TID 0000.0001)  INI_PARMS ; read PARM04 : OK
(PID.TID 0000.0001)  INI_PARMS ; starts to read PARM05
(PID.TID 0000.0001)  INI_PARMS ; read PARM05 : OK
(PID.TID 0000.0001)  INI_PARMS: finished reading file "data"
(PID.TID 0000.0001)  PACKAGES_BOOT: opening data.pkg
(PID.TID 0000.0001)  OPEN_COPY_DATA_FILE: opening file data.pkg
(PID.TID 0000.0001) // =======================================================
(PID.TID 0000.0001) // Parameter file "data.pkg"
(PID.TID 0000.0001) // =======================================================
(PID.TID 0000.0001) ># Packages
(PID.TID 0000.0001) > &PACKAGES
(PID.TID 0000.0001) > useOBCS=.TRUE.,
(PID.TID 0000.0001) > useKL10=.TRUE.,
(PID.TID 0000.0001) > useDIAGNOSTICS=.FALSE.,
(PID.TID 0000.0001) > useMNC=.FALSE.,
(PID.TID 0000.0001) > /
(PID.TID 0000.0001) 
(PID.TID 0000.0001)  PACKAGES_BOOT: finished reading data.pkg
(PID.TID 0000.0001)  PACKAGES_BOOT: On/Off package Summary
 --------  pkgs with a standard "usePKG" On/Off switch in "data.pkg":  --------
 pkg/obcs                 compiled   and   used ( useOBCS                  = T )
 pkg/kl10                 compiled   and   used ( useKL10                  = T )
 -------- pkgs without standard "usePKG" On/Off switch in "data.pkg":  --------
 pkg/generic_advdiff      compiled   and   used ( useGAD                   = T )
 pkg/mom_common           compiled   and   used ( momStepping              = T )
 pkg/mom_vecinv           compiled but not used ( +vectorInvariantMomentum = F )
 pkg/mom_fluxform         compiled   and   used ( & not vectorInvariantMom = T )
 pkg/monitor              compiled   and   used ( monitorFreq > 0.         = T )
 pkg/debug                compiled but not used ( debugMode                = F )
 pkg/rw                   compiled   and   used
 pkg/mdsio                compiled   and   used
(PID.TID 0000.0001)  PACKAGES_BOOT: End of package Summary
(PID.TID 0000.0001) 
(PID.TID 0000.0001)  OBCS_READPARMS: opening data.obcs
(PID.TID 0000.0001)  OPEN_COPY_DATA_FILE: opening file data.obcs
(PID.TID 0000.0001) // =======================================================
(PID.TID 0000.0001) // Parameter file "data.obcs"
(PID.TID 0000.0001) // =======================================================
(PID.TID 0000.0001) ># Open-boundaries
(PID.TID 0000.0001) > &OBCS_PARM01
(PID.TID 0000.0001) > OB_Iwest=1*1,
(PID.TID 0000.0001) > OB_Ieast=1*-1,
(PID.TID 0000.0001) > OB_Jnorth=100*0,
(PID.TID 0000.0001) > OB_Jsouth=100*0,
(PID.TID 0000.0001) > useOBCSsponge=.TRUE.,
(PID.TID 0000.0001) > OBEuFile='U_in.bin',
(PID.TID 0000.0001) > OBWuFile='U_in.bin',
(PID.TID 0000.0001) > OBEtFile='TE.bin',
(PID.TID 0000.0001) > OBWtFile='TW.bin',
(PID.TID 0000.0001) > useOBCSprescribe=.TRUE.,
(PID.TID 0000.0001) > /
(PID.TID 0000.0001) >
(PID.TID 0000.0001) ># Orlanski parameters
(PID.TID 0000.0001) > &OBCS_PARM02
(PID.TID 0000.0001) >/
(PID.TID 0000.0001) >
(PID.TID 0000.0001) ># Sponge layer parameters
(PID.TID 0000.0001) > &OBCS_PARM03
(PID.TID 0000.0001) > Urelaxobcsinner=1000.,
(PID.TID 0000.0001) > Urelaxobcsbound=100.,
(PID.TID 0000.0001) > Vrelaxobcsinner=1000.0,
(PID.TID 0000.0001) > Vrelaxobcsbound=100.0,
(PID.TID 0000.0001) > spongeThickness=10,
(PID.TID 0000.0001) > /
(PID.TID 0000.0001) 
(PID.TID 0000.0001)  OBCS_READPARMS: finished reading data.obcs
(PID.TID 0000.0001)  OB_indexUnset = /* unset OB index value (i.e. no OB) */
(PID.TID 0000.0001)                       0
(PID.TID 0000.0001)     ;
(PID.TID 0000.0001)  Northern OB global indices : OB_Jnorth =
(PID.TID 0000.0001)   200 @        0                            /* I =  1:200 */
(PID.TID 0000.0001)  Southern OB global indices : OB_Jsouth =
(PID.TID 0000.0001)   200 @        0                            /* I =  1:200 */
(PID.TID 0000.0001)  Eastern  OB global indices : OB_Ieast =
(PID.TID 0000.0001)                     200                     /* J =  1 */
(PID.TID 0000.0001)  Western  OB global indices : OB_Iwest =
(PID.TID 0000.0001)                       1                     /* J =  1 */
(PID.TID 0000.0001) 
(PID.TID 0000.0001)  KL10_READPARMS: opening data.kl10
(PID.TID 0000.0001)  OPEN_COPY_DATA_FILE: opening file data.kl10
(PID.TID 0000.0001) // =======================================================
(PID.TID 0000.0001) // Parameter file "data.kl10"
(PID.TID 0000.0001) // =======================================================
(PID.TID 0000.0001) ># =====================================================================
(PID.TID 0000.0001) ># | Parameters for Klymak and Legg (2010) vertical mixing scheme      |
(PID.TID 0000.0001) ># =====================================================================
(PID.TID 0000.0001) > &KL10_PARM01
(PID.TID 0000.0001) > KLwriteState=.TRUE.,
(PID.TID 0000.0001) >/
(PID.TID 0000.0001) 
(PID.TID 0000.0001)  KL10_READPARMS: finished reading data.kl10
(PID.TID 0000.0001) SET_PARMS: done
(PID.TID 0000.0001)  MDS_READVEC_LOC: open file: delXvar.bin
(PID.TID 0000.0001) S/R LOAD_GRID_SPACING: delX loaded from file: delXvar.bin
(PID.TID 0000.0001)  MDS_READVEC_LOC: open file: delZvar.bin
(PID.TID 0000.0001) S/R LOAD_GRID_SPACING: delR loaded from file: delZvar.bin
(PID.TID 0000.0001) Enter INI_VERTICAL_GRID: setInterFDr=    T ; setCenterDr=    F
(PID.TID 0000.0001) %MON XC_max                       =   9.9471849328752E+04
(PID.TID 0000.0001) %MON XC_min                       =   6.3164731900833E+02
(PID.TID 0000.0001) %MON XC_mean                      =   5.2906107272275E+04
(PID.TID 0000.0001) %MON XC_sd                        =   2.2139310392762E+04
(PID.TID 0000.0001) %MON XG_max                       =   9.8943698657505E+04
(PID.TID 0000.0001) %MON XG_min                       =   0.0000000000000E+00
(PID.TID 0000.0001) %MON XG_mean                      =   5.2656107272275E+04
(PID.TID 0000.0001) %MON XG_sd                        =   2.2172561685063E+04
(PID.TID 0000.0001) %MON DXC_max                      =   1.2503953509116E+03
(PID.TID 0000.0001) %MON DXC_min                      =   2.0000000000000E+02
(PID.TID 0000.0001) %MON DXC_mean                     =   5.0000000000000E+02
(PID.TID 0000.0001) %MON DXC_sd                       =   2.8531736750525E+02
(PID.TID 0000.0001) %MON DXF_max                      =   1.2632946380167E+03
(PID.TID 0000.0001) %MON DXF_min                      =   2.0000000000000E+02
(PID.TID 0000.0001) %MON DXF_mean                     =   5.0000000000000E+02
(PID.TID 0000.0001) %MON DXF_sd                       =   2.8547066202794E+02
(PID.TID 0000.0001) %MON DXG_max                      =   1.2632946380167E+03
(PID.TID 0000.0001) %MON DXG_min                      =   2.0000000000000E+02
(PID.TID 0000.0001) %MON DXG_mean                     =   5.0000000000000E+02
(PID.TID 0000.0001) %MON DXG_sd                       =   2.8547066202794E+02
(PID.TID 0000.0001) %MON DXV_max                      =   1.2503953509116E+03
(PID.TID 0000.0001) %MON DXV_min                      =   2.0000000000000E+02
(PID.TID 0000.0001) %MON DXV_mean                     =   5.0000000000000E+02
(PID.TID 0000.0001) %MON DXV_sd                       =   2.8531736750525E+02
(PID.TID 0000.0001) %MON YC_max                       =   2.5000000000000E+03
(PID.TID 0000.0001) %MON YC_min                       =   2.5000000000000E+03
(PID.TID 0000.0001) %MON YC_mean                      =   2.5000000000000E+03
(PID.TID 0000.0001) %MON YC_sd                        =   0.0000000000000E+00
(PID.TID 0000.0001) %MON YG_max                       =   0.0000000000000E+00
(PID.TID 0000.0001) %MON YG_min                       =   0.0000000000000E+00
(PID.TID 0000.0001) %MON YG_mean                      =   0.0000000000000E+00
(PID.TID 0000.0001) %MON YG_sd                        =   0.0000000000000E+00
(PID.TID 0000.0001) %MON DYC_max                      =   5.0000000000000E+03
(PID.TID 0000.0001) %MON DYC_min                      =   5.0000000000000E+03
(PID.TID 0000.0001) %MON DYC_mean                     =   5.0000000000000E+03
(PID.TID 0000.0001) %MON DYC_sd                       =   0.0000000000000E+00
(PID.TID 0000.0001) %MON DYF_max                      =   5.0000000000000E+03
(PID.TID 0000.0001) %MON DYF_min                      =   5.0000000000000E+03
(PID.TID 0000.0001) %MON DYF_mean                     =   5.0000000000000E+03
(PID.TID 0000.0001) %MON DYF_sd                       =   0.0000000000000E+00
(PID.TID 0000.0001) %MON DYG_max                      =   5.0000000000000E+03
(PID.TID 0000.0001) %MON DYG_min                      =   5.0000000000000E+03
(PID.TID 0000.0001) %MON DYG_mean                     =   5.0000000000000E+03
(PID.TID 0000.0001) %MON DYG_sd                       =   0.0000000000000E+00
(PID.TID 0000.0001) %MON DYU_max                      =   5.0000000000000E+03
(PID.TID 0000.0001) %MON DYU_min                      =   5.0000000000000E+03
(PID.TID 0000.0001) %MON DYU_mean                     =   5.0000000000000E+03
(PID.TID 0000.0001) %MON DYU_sd                       =   0.0000000000000E+00
(PID.TID 0000.0001) %MON RA_max                       =   6.3164731900833E+06
(PID.TID 0000.0001) %MON RA_min                       =   1.0000000000000E+06
(PID.TID 0000.0001) %MON RA_mean                      =   2.5000000000000E+06
(PID.TID 0000.0001) %MON RA_sd                        =   1.4273533101397E+06
(PID.TID 0000.0001) %MON RAW_max                      =   6.2519767545581E+06
(PID.TID 0000.0001) %MON RAW_min                      =   1.0000000000000E+06
(PID.TID 0000.0001) %MON RAW_mean                     =   2.5000000000000E+06
(PID.TID 0000.0001) %MON RAW_sd                       =   1.4265868375263E+06
(PID.TID 0000.0001) %MON RAS_max                      =   6.3164731900833E+06
(PID.TID 0000.0001) %MON RAS_min                      =   1.0000000000000E+06
(PID.TID 0000.0001) %MON RAS_mean                     =   2.5000000000000E+06
(PID.TID 0000.0001) %MON RAS_sd                       =   1.4273533101397E+06
(PID.TID 0000.0001) %MON RAZ_max                      =   6.2519767545581E+06
(PID.TID 0000.0001) %MON RAZ_min                      =   1.0000000000000E+06
(PID.TID 0000.0001) %MON RAZ_mean                     =   2.5000000000000E+06
(PID.TID 0000.0001) %MON RAZ_sd                       =   1.4265868375263E+06
(PID.TID 0000.0001) %MON AngleCS_max                  =   1.0000000000000E+00
(PID.TID 0000.0001) %MON AngleCS_min                  =   1.0000000000000E+00
(PID.TID 0000.0001) %MON AngleCS_mean                 =   1.0000000000000E+00
(PID.TID 0000.0001) %MON AngleCS_sd                   =   0.0000000000000E+00
(PID.TID 0000.0001) %MON AngleSN_max                  =   0.0000000000000E+00
(PID.TID 0000.0001) %MON AngleSN_min                  =   0.0000000000000E+00
(PID.TID 0000.0001) %MON AngleSN_mean                 =   0.0000000000000E+00
(PID.TID 0000.0001) %MON AngleSN_sd                   =   0.0000000000000E+00
(PID.TID 0000.0001)  MDS_READVEC_LOC: open file: Tref.bin
(PID.TID 0000.0001) S/R LOAD_REF_FILES: tRef loaded from file: Tref.bin
(PID.TID 0000.0001)  MDS_READ_FIELD: opening global file: topo.bin
(PID.TID 0000.0001) // =======================================================
(PID.TID 0000.0001) // Field Model R_low (ini_masks_etc)
(PID.TID 0000.0001) // CMIN =         -1.995096555355119E+02
(PID.TID 0000.0001) // CMAX =         -8.001666550931284E+01
(PID.TID 0000.0001) // CINT =          4.425666297266630E+00
(PID.TID 0000.0001) // SYMBOLS (CMIN->CMAX): -abcdefghijklmnopqrstuvwxyz+
(PID.TID 0000.0001) //                  0.0: .
(PID.TID 0000.0001) // RANGE I (Lo:Hi:Step):(    -1:   202:     1)
(PID.TID 0000.0001) // RANGE J (Lo:Hi:Step):(     3:    -1:    -1)
(PID.TID 0000.0001) // RANGE K (Lo:Hi:Step):(   1:   1:   1)
(PID.TID 0000.0001) // =======================================================
(PID.TID 0000.0001) K =   1
(PID.TID 0000.0001) //                I=8       I=18      I=28      I=38      I=48      I=58      I=68      I=78      I=88      I=98      I=108     I=118     I=128     I=138     I=148     I=158     I=168     I=178     I=188     I=198
(PID.TID 0000.0001) // |--J--|101234567|901234567|901234567|901234567|901234567|901234567|901234567|901234567|901234567|901234567|901234567|901234567|901234567|901234567|901234567|901234567|901234567|901234567|901234567|901234567|9012
(PID.TID 0000.0001) //      3 -------------------aaaaaaaaaaaabbbbbbcccccddddeeefffgghhhiijjkkllmmnnoppqqrrssttuuvvwwxxxyyyzzzz++++++++++++zzzzyyyxxxwwvvuuttssrrqqpponnmmllkkjjiihhhggfffeeeddddcccccbbbbbbaaaaaaaaaaaa-------------------
(PID.TID 0000.0001) //      2 -------------------aaaaaaaaaaaabbbbbbcccccddddeeefffgghhhiijjkkllmmnnoppqqrrssttuuvvwwxxxyyyzzzz++++++++++++zzzzyyyxxxwwvvuuttssrrqqpponnmmllkkjjiihhhggfffeeeddddcccccbbbbbbaaaaaaaaaaaa-------------------
(PID.TID 0000.0001) //      1 -------------------aaaaaaaaaaaabbbbbbcccccddddeeefffgghhhiijjkkllmmnnoppqqrrssttuuvvwwxxxyyyzzzz++++++++++++zzzzyyyxxxwwvvuuttssrrqqpponnmmllkkjjiihhhggfffeeeddddcccccbbbbbbaaaaaaaaaaaa-------------------
(PID.TID 0000.0001) //      0 -------------------aaaaaaaaaaaabbbbbbcccccddddeeefffgghhhiijjkkllmmnnoppqqrrssttuuvvwwxxxyyyzzzz++++++++++++zzzzyyyxxxwwvvuuttssrrqqpponnmmllkkjjiihhhggfffeeeddddcccccbbbbbbaaaaaaaaaaaa-------------------
(PID.TID 0000.0001) //     -1 -------------------aaaaaaaaaaaabbbbbbcccccddddeeefffgghhhiijjkkllmmnnoppqqrrssttuuvvwwxxxyyyzzzz++++++++++++zzzzyyyxxxwwvvuuttssrrqqpponnmmllkkjjiihhhggfffeeeddddcccccbbbbbbaaaaaaaaaaaa-------------------
(PID.TID 0000.0001) // =======================================================
(PID.TID 0000.0001) // END OF FIELD                                          =
(PID.TID 0000.0001) // =======================================================
(PID.TID 0000.0001) 
(PID.TID 0000.0001) // =======================================================
(PID.TID 0000.0001) // Field Model Ro_surf (ini_masks_etc)
(PID.TID 0000.0001) // CMIN =         -8.704148513061227E-14
(PID.TID 0000.0001) // CMAX =         -1.776356839400250E-15
(PID.TID 0000.0001) // CINT =          3.157967714489334E-15
(PID.TID 0000.0001) // SYMBOLS (CMIN->CMAX): -abcdefghijklmnopqrstuvwxyz+
(PID.TID 0000.0001) //                  0.0: .
(PID.TID 0000.0001) // RANGE I (Lo:Hi:Step):(    -1:   202:     1)
(PID.TID 0000.0001) // RANGE J (Lo:Hi:Step):(     3:    -1:    -1)
(PID.TID 0000.0001) // RANGE K (Lo:Hi:Step):(   1:   1:   1)
(PID.TID 0000.0001) // =======================================================
(PID.TID 0000.0001) K =   1
(PID.TID 0000.0001) //                I=8       I=18      I=28      I=38      I=48      I=58      I=68      I=78      I=88      I=98      I=108     I=118     I=128     I=138     I=148     I=158     I=168     I=178     I=188     I=198
(PID.TID 0000.0001) // |--J--|101234567|901234567|901234567|901234567|901234567|901234567|901234567|901234567|901234567|901234567|901234567|901234567|901234567|901234567|901234567|901234567|901234567|901234567|901234567|901234567|9012
(PID.TID 0000.0001) //      3 -----------iiiiii---iiiiiirrrrriiiiiiiri---ii-----------iiiii--i-iiirrrrrrrr+rrr+rr+++++r++++++++++++++++++++++++++r+++++rr+rrr+rrrrrrrriii-i--iiiii-----------ii---iriiiiiiirrrrriiiiii---iiiiii-----------
(PID.TID 0000.0001) //      2 -----------iiiiii---iiiiiirrrrriiiiiiiri---ii-----------iiiii--i-iiirrrrrrrr+rrr+rr+++++r++++++++++++++++++++++++++r+++++rr+rrr+rrrrrrrriii-i--iiiii-----------ii---iriiiiiiirrrrriiiiii---iiiiii-----------
(PID.TID 0000.0001) //      1 -----------iiiiii---iiiiiirrrrriiiiiiiri---ii-----------iiiii--i-iiirrrrrrrr+rrr+rr+++++r++++++++++++++++++++++++++r+++++rr+rrr+rrrrrrrriii-i--iiiii-----------ii---iriiiiiiirrrrriiiiii---iiiiii-----------
(PID.TID 0000.0001) //      0 -----------iiiiii---iiiiiirrrrriiiiiiiri---ii-----------iiiii--i-iiirrrrrrrr+rrr+rr+++++r++++++++++++++++++++++++++r+++++rr+rrr+rrrrrrrriii-i--iiiii-----------ii---iriiiiiiirrrrriiiiii---iiiiii-----------
(PID.TID 0000.0001) //     -1 -----------iiiiii---iiiiiirrrrriiiiiiiri---ii-----------iiiii--i-iiirrrrrrrr+rrr+rr+++++r++++++++++++++++++++++++++r+++++rr+rrr+rrrrrrrriii-i--iiiii-----------ii---iriiiiiiirrrrriiiiii---iiiiii-----------
(PID.TID 0000.0001) // =======================================================
(PID.TID 0000.0001) // END OF FIELD                                          =
(PID.TID 0000.0001) // =======================================================
(PID.TID 0000.0001) 
(PID.TID 0000.0001) // =======================================================
(PID.TID 0000.0001) // Field hFacC at iteration          0
(PID.TID 0000.0001) // CMIN =          1.000000000000000E+00
(PID.TID 0000.0001) // CMAX =          1.000000000000000E+00
(PID.TID 0000.0001) // CINT =          0.000000000000000E+00
(PID.TID 0000.0001) // SYMBOLS (CMIN->CMAX): -abcdefghijklmnopqrstuvwxyz+
(PID.TID 0000.0001) //                  0.0: .
(PID.TID 0000.0001) // RANGE I (Lo:Hi:Step):(    -1:   202:     1)
(PID.TID 0000.0001) // RANGE J (Lo:Hi:Step):(     3:    -1:    -1)
(PID.TID 0000.0001) // RANGE K (Lo:Hi:Step):(   1:   1:   1)
(PID.TID 0000.0001) // =======================================================
(PID.TID 0000.0001) // =======================================================
(PID.TID 0000.0001) // END OF FIELD                                          =
(PID.TID 0000.0001) // =======================================================
(PID.TID 0000.0001) 
(PID.TID 0000.0001) // =======================================================
(PID.TID 0000.0001) // Field hFacW at iteration          0
(PID.TID 0000.0001) // CMIN =          1.000000000000000E+00
(PID.TID 0000.0001) // CMAX =          1.000000000000000E+00
(PID.TID 0000.0001) // CINT =          0.000000000000000E+00
(PID.TID 0000.0001) // SYMBOLS (CMIN->CMAX): -abcdefghijklmnopqrstuvwxyz+
(PID.TID 0000.0001) //                  0.0: .
(PID.TID 0000.0001) // RANGE I (Lo:Hi:Step):(    -1:   202:     1)
(PID.TID 0000.0001) // RANGE J (Lo:Hi:Step):(     3:    -1:    -1)
(PID.TID 0000.0001) // RANGE K (Lo:Hi:Step):(   1:   1:   1)
(PID.TID 0000.0001) // =======================================================
(PID.TID 0000.0001) // =======================================================
(PID.TID 0000.0001) // END OF FIELD                                          =
(PID.TID 0000.0001) // =======================================================
(PID.TID 0000.0001) 
(PID.TID 0000.0001) // =======================================================
(PID.TID 0000.0001) // Field hFacS at iteration          0
(PID.TID 0000.0001) // CMIN =          1.000000000000000E+00
(PID.TID 0000.0001) // CMAX =          1.000000000000000E+00
(PID.TID 0000.0001) // CINT =          0.000000000000000E+00
(PID.TID 0000.0001) // SYMBOLS (CMIN->CMAX): -abcdefghijklmnopqrstuvwxyz+
(PID.TID 0000.0001) //                  0.0: .
(PID.TID 0000.0001) // RANGE I (Lo:Hi:Step):(    -1:   202:     1)
(PID.TID 0000.0001) // RANGE J (Lo:Hi:Step):(     3:    -1:    -1)
(PID.TID 0000.0001) // RANGE K (Lo:Hi:Step):(   1:   1:   1)
(PID.TID 0000.0001) // =======================================================
(PID.TID 0000.0001) // =======================================================
(PID.TID 0000.0001) // END OF FIELD                                          =
(PID.TID 0000.0001) // =======================================================
(PID.TID 0000.0001) 
(PID.TID 0000.0001) GAD_INIT_FIXED: GAD_OlMinSize=  2  0  1
(PID.TID 0000.0001) 
(PID.TID 0000.0001) // ===================================
(PID.TID 0000.0001) // GAD parameters :
(PID.TID 0000.0001) // ===================================
(PID.TID 0000.0001) tempAdvScheme =   /* Temp. Horiz.Advection scheme selector */
(PID.TID 0000.0001)                      77
(PID.TID 0000.0001)     ;
(PID.TID 0000.0001) tempVertAdvScheme =   /* Temp. Vert. Advection scheme selector */
(PID.TID 0000.0001)                      77
(PID.TID 0000.0001)     ;
(PID.TID 0000.0001) tempMultiDimAdvec =   /* use Muti-Dim Advec method for Temp */
(PID.TID 0000.0001)                   T
(PID.TID 0000.0001)     ;
(PID.TID 0000.0001) tempSOM_Advection = /* use 2nd Order Moment Advection for Temp */
(PID.TID 0000.0001)                   F
(PID.TID 0000.0001)     ;
(PID.TID 0000.0001) AdamsBashforthGt = /* apply Adams-Bashforth extrapolation on Gt */
(PID.TID 0000.0001)                   F
(PID.TID 0000.0001)     ;
(PID.TID 0000.0001) AdamsBashforth_T = /* apply Adams-Bashforth extrapolation on Temp */
(PID.TID 0000.0001)                   F
(PID.TID 0000.0001)     ;
(PID.TID 0000.0001) saltAdvScheme =   /* Salt. Horiz.advection scheme selector */
(PID.TID 0000.0001)                       2
(PID.TID 0000.0001)     ;
(PID.TID 0000.0001) saltVertAdvScheme =   /* Salt. Vert. Advection scheme selector */
(PID.TID 0000.0001)                       2
(PID.TID 0000.0001)     ;
(PID.TID 0000.0001) saltMultiDimAdvec =   /* use Muti-Dim Advec method for Salt */
(PID.TID 0000.0001)                   F
(PID.TID 0000.0001)     ;
(PID.TID 0000.0001) saltSOM_Advection = /* use 2nd Order Moment Advection for Salt */
(PID.TID 0000.0001)                   F
(PID.TID 0000.0001)     ;
(PID.TID 0000.0001) AdamsBashforthGs = /* apply Adams-Bashforth extrapolation on Gs */
(PID.TID 0000.0001)                   F
(PID.TID 0000.0001)     ;
(PID.TID 0000.0001) AdamsBashforth_S = /* apply Adams-Bashforth extrapolation on Salt */
(PID.TID 0000.0001)                   F
(PID.TID 0000.0001)     ;
(PID.TID 0000.0001) // ===================================
(PID.TID 0000.0001) %MON fCori_max                    =   0.0000000000000E+00
(PID.TID 0000.0001) %MON fCori_min                    =   0.0000000000000E+00
(PID.TID 0000.0001) %MON fCori_mean                   =   0.0000000000000E+00
(PID.TID 0000.0001) %MON fCori_sd                     =   0.0000000000000E+00
(PID.TID 0000.0001) %MON fCoriG_max                   =   0.0000000000000E+00
(PID.TID 0000.0001) %MON fCoriG_min                   =   0.0000000000000E+00
(PID.TID 0000.0001) %MON fCoriG_mean                  =   0.0000000000000E+00
(PID.TID 0000.0001) %MON fCoriG_sd                    =   0.0000000000000E+00
(PID.TID 0000.0001) %MON fCoriCos_max                 =   0.0000000000000E+00
(PID.TID 0000.0001) %MON fCoriCos_min                 =   0.0000000000000E+00
(PID.TID 0000.0001) %MON fCoriCos_mean                =   0.0000000000000E+00
(PID.TID 0000.0001) %MON fCoriCos_sd                  =   0.0000000000000E+00
(PID.TID 0000.0001) INI_CG2D: CG2D normalisation factor =  3.9806821064003673E-04
(PID.TID 0000.0001) 
(PID.TID 0000.0001) // =======================================================
(PID.TID 0000.0001) // Model configuration
(PID.TID 0000.0001) // =======================================================
(PID.TID 0000.0001) //
(PID.TID 0000.0001) // "Physical" paramters ( PARM01 in namelist )
(PID.TID 0000.0001) //
(PID.TID 0000.0001) buoyancyRelation = /* Type of relation to get Buoyancy */
(PID.TID 0000.0001)               'OCEANIC'
(PID.TID 0000.0001)     ;
(PID.TID 0000.0001) fluidIsAir   =  /* fluid major constituent is Air */
(PID.TID 0000.0001)                   F
(PID.TID 0000.0001)     ;
(PID.TID 0000.0001) fluidIsWater =  /* fluid major constituent is Water */
(PID.TID 0000.0001)                   T
(PID.TID 0000.0001)     ;
(PID.TID 0000.0001) usingPCoords =  /* use p (or p*) vertical coordinate */
(PID.TID 0000.0001)                   F
(PID.TID 0000.0001)     ;
(PID.TID 0000.0001) usingZCoords =  /* use z (or z*) vertical coordinate */
(PID.TID 0000.0001)                   T
(PID.TID 0000.0001)     ;
(PID.TID 0000.0001) tRef =   /* Reference temperature profile ( oC or K ) */
(PID.TID 0000.0001)    13 @  1.500000000000000E+01,             /* K =  1: 13 */
(PID.TID 0000.0001)                 1.499933084687693E+01,      /* K = 14 */
(PID.TID 0000.0001)                 1.497717153877677E+01,      /* K = 15 */
(PID.TID 0000.0001)                 1.470721590167325E+01,      /* K = 16 */
(PID.TID 0000.0001)                 1.349735867339025E+01,      /* K = 17 */
(PID.TID 0000.0001)                 1.150264132660976E+01,      /* K = 18 */
(PID.TID 0000.0001)                 1.029278409832675E+01,      /* K = 19 */
(PID.TID 0000.0001)                 1.002282846122323E+01,      /* K = 20 */
(PID.TID 0000.0001)                 1.000066915312308E+01,      /* K = 21 */
(PID.TID 0000.0001)    79 @  1.000000000000000E+01              /* K = 22:100 */
(PID.TID 0000.0001)     ;
(PID.TID 0000.0001) sRef =   /* Reference salinity profile ( psu ) */
(PID.TID 0000.0001)   100 @  3.500000000000000E+01              /* K =  1:100 */
(PID.TID 0000.0001)     ;
(PID.TID 0000.0001) useStrainTensionVisc= /* Use StrainTension Form of Viscous Operator */
(PID.TID 0000.0001)                   F
(PID.TID 0000.0001)     ;
(PID.TID 0000.0001) useVariableVisc = /* Use variable horizontal viscosity */
(PID.TID 0000.0001)                   F
(PID.TID 0000.0001)     ;
(PID.TID 0000.0001) useHarmonicVisc = /* Use harmonic horizontal viscosity */
(PID.TID 0000.0001)                   T
(PID.TID 0000.0001)     ;
(PID.TID 0000.0001) useBiharmonicVisc= /* Use biharmonic horiz.  viscosity */
(PID.TID 0000.0001)                   F
(PID.TID 0000.0001)     ;
(PID.TID 0000.0001) useSmag3D = /* Use isotropic 3-D Smagorinsky viscosity */
(PID.TID 0000.0001)                   F
(PID.TID 0000.0001)     ;
(PID.TID 0000.0001) viscAh  =   /* Lateral harmonic viscosity ( m^2/s ) */
(PID.TID 0000.0001)                 1.000000000000000E-04
(PID.TID 0000.0001)     ;
(PID.TID 0000.0001) viscA4  =   /* Lateral biharmonic viscosity ( m^4/s ) */
(PID.TID 0000.0001)                 0.000000000000000E+00
(PID.TID 0000.0001)     ;
(PID.TID 0000.0001) no_slip_sides =  /* Viscous BCs: No-slip sides */
(PID.TID 0000.0001)                   F
(PID.TID 0000.0001)     ;
(PID.TID 0000.0001) sideDragFactor = /* side-drag scaling factor (non-dim) */
(PID.TID 0000.0001)                 2.000000000000000E+00
(PID.TID 0000.0001)     ;
(PID.TID 0000.0001) viscArNr = /* vertical profile of vertical viscosity ( m^2/s )*/
(PID.TID 0000.0001)   100 @  1.000000000000000E-05              /* K =  1:100 */
(PID.TID 0000.0001)     ;
(PID.TID 0000.0001) no_slip_bottom =  /* Viscous BCs: No-slip bottom */
(PID.TID 0000.0001)                   F
(PID.TID 0000.0001)     ;
(PID.TID 0000.0001) bottomDragLinear = /* linear bottom-drag coefficient ( m/s ) */
(PID.TID 0000.0001)                 0.000000000000000E+00
(PID.TID 0000.0001)     ;
(PID.TID 0000.0001) bottomDragQuadratic = /* quadratic bottom-drag coefficient (-) */
(PID.TID 0000.0001)                 0.000000000000000E+00
(PID.TID 0000.0001)     ;
(PID.TID 0000.0001) diffKhT =   /* Laplacian diffusion of heat laterally ( m^2/s ) */
(PID.TID 0000.0001)                 1.000000000000000E-04
(PID.TID 0000.0001)     ;
(PID.TID 0000.0001) diffK4T =   /* Biharmonic diffusion of heat laterally ( m^4/s ) */
(PID.TID 0000.0001)                 0.000000000000000E+00
(PID.TID 0000.0001)     ;
(PID.TID 0000.0001) diffKhS =   /* Laplacian diffusion of salt laterally ( m^2/s ) */
(PID.TID 0000.0001)                 1.000000000000000E+03
(PID.TID 0000.0001)     ;
(PID.TID 0000.0001) diffK4S =   /* Biharmonic diffusion of salt laterally ( m^4/s ) */
(PID.TID 0000.0001)                 0.000000000000000E+00
(PID.TID 0000.0001)     ;
(PID.TID 0000.0001) diffKrNrT = /* vertical profile of vertical diffusion of Temp ( m^2/s )*/
(PID.TID 0000.0001)   100 @  1.000000000000000E-05              /* K =  1:100 */
(PID.TID 0000.0001)     ;
(PID.TID 0000.0001) diffKrNrS = /* vertical profile of vertical diffusion of Salt ( m^2/s )*/
(PID.TID 0000.0001)   100 @  1.000000000000000E-05              /* K =  1:100 */
(PID.TID 0000.0001)     ;
(PID.TID 0000.0001) diffKrBL79surf = /* Surface diffusion for Bryan and Lewis 79 ( m^2/s ) */
(PID.TID 0000.0001)                 0.000000000000000E+00
(PID.TID 0000.0001)     ;
(PID.TID 0000.0001) diffKrBL79deep = /* Deep diffusion for Bryan and Lewis 1979 ( m^2/s ) */
(PID.TID 0000.0001)                 0.000000000000000E+00
(PID.TID 0000.0001)     ;
(PID.TID 0000.0001) diffKrBL79scl = /* Depth scale for Bryan and Lewis 1979 ( m ) */
(PID.TID 0000.0001)                 2.000000000000000E+02
(PID.TID 0000.0001)     ;
(PID.TID 0000.0001) diffKrBL79Ho = /* Turning depth for Bryan and Lewis 1979 ( m ) */
(PID.TID 0000.0001)                -2.000000000000000E+03
(PID.TID 0000.0001)     ;
(PID.TID 0000.0001) ivdc_kappa = /* Implicit Vertical Diffusivity for Convection ( m^2/s) */
(PID.TID 0000.0001)                 0.000000000000000E+00
(PID.TID 0000.0001)     ;
(PID.TID 0000.0001) hMixCriteria=  /* Criteria for mixed-layer diagnostic */
(PID.TID 0000.0001)                -8.000000000000000E-01
(PID.TID 0000.0001)     ;
(PID.TID 0000.0001) dRhoSmall =  /* Parameter for mixed-layer diagnostic */
(PID.TID 0000.0001)                 1.000000000000000E-06
(PID.TID 0000.0001)     ;
(PID.TID 0000.0001) hMixSmooth=  /* Smoothing parameter for mixed-layer diagnostic */
(PID.TID 0000.0001)                 0.000000000000000E+00
(PID.TID 0000.0001)     ;
(PID.TID 0000.0001) eosType =  /* Type of Equation of State */
(PID.TID 0000.0001)               'LINEAR'
(PID.TID 0000.0001)     ;
(PID.TID 0000.0001) tAlpha = /* Linear EOS thermal expansion coefficient ( 1/oC ) */
(PID.TID 0000.0001)                 2.000000000000000E-04
(PID.TID 0000.0001)     ;
(PID.TID 0000.0001) sBeta  = /* Linear EOS haline contraction coefficient ( 1/psu ) */
(PID.TID 0000.0001)                 0.000000000000000E+00
(PID.TID 0000.0001)     ;
(PID.TID 0000.0001) rhoNil    = /* Reference density for Linear EOS ( kg/m^3 ) */
(PID.TID 0000.0001)                 9.998000000000000E+02
(PID.TID 0000.0001)     ;
(PID.TID 0000.0001) HeatCapacity_Cp =  /* Specific heat capacity ( J/kg/K ) */
(PID.TID 0000.0001)                 3.994000000000000E+03
(PID.TID 0000.0001)     ;
(PID.TID 0000.0001) celsius2K = /* 0 degree Celsius converted to Kelvin ( K ) */
(PID.TID 0000.0001)                 2.731500000000000E+02
(PID.TID 0000.0001)     ;
(PID.TID 0000.0001) rhoConst  = /* Reference density (Boussinesq)  ( kg/m^3 ) */
(PID.TID 0000.0001)                 9.998000000000000E+02
(PID.TID 0000.0001)     ;
(PID.TID 0000.0001) rhoFacC = /* normalized Reference density @ cell-Center (-) */
(PID.TID 0000.0001)   100 @  1.000000000000000E+00              /* K =  1:100 */
(PID.TID 0000.0001)     ;
(PID.TID 0000.0001) rhoFacF = /* normalized Reference density @ W-Interface (-) */
(PID.TID 0000.0001)   101 @  1.000000000000000E+00              /* K =  1:101 */
(PID.TID 0000.0001)     ;
(PID.TID 0000.0001) rhoConstFresh = /* Fresh-water reference density ( kg/m^3 ) */
(PID.TID 0000.0001)                 9.998000000000000E+02
(PID.TID 0000.0001)     ;
(PID.TID 0000.0001) gravity =   /* Gravitational acceleration ( m/s^2 ) */
(PID.TID 0000.0001)                 9.810000000000000E+00
(PID.TID 0000.0001)     ;
(PID.TID 0000.0001) gBaro =   /* Barotropic gravity ( m/s^2 ) */
(PID.TID 0000.0001)                 9.810000000000000E+00
(PID.TID 0000.0001)     ;
(PID.TID 0000.0001) rotationPeriod =   /* Rotation Period ( s ) */
(PID.TID 0000.0001)                 8.616400000000000E+04
(PID.TID 0000.0001)     ;
(PID.TID 0000.0001) omega =   /* Angular velocity ( rad/s ) */
(PID.TID 0000.0001)                 7.292123516990375E-05
(PID.TID 0000.0001)     ;
(PID.TID 0000.0001) f0 =   /* Reference coriolis parameter ( 1/s ) */
(PID.TID 0000.0001)                 0.000000000000000E+00
(PID.TID 0000.0001)     ;
(PID.TID 0000.0001) beta =   /* Beta ( 1/(m.s) ) */
(PID.TID 0000.0001)                 0.000000000000000E+00
(PID.TID 0000.0001)     ;
(PID.TID 0000.0001) fPrime =   /* Second coriolis parameter ( 1/s ) */
(PID.TID 0000.0001)                 0.000000000000000E+00
(PID.TID 0000.0001)     ;
(PID.TID 0000.0001) rigidLid =   /* Rigid lid on/off flag */
(PID.TID 0000.0001)                   F
(PID.TID 0000.0001)     ;
(PID.TID 0000.0001) implicitFreeSurface =   /* Implicit free surface on/off flag */
(PID.TID 0000.0001)                   T
(PID.TID 0000.0001)     ;
(PID.TID 0000.0001) freeSurfFac =   /* Implicit free surface factor */
(PID.TID 0000.0001)                 1.000000000000000E+00
(PID.TID 0000.0001)     ;
(PID.TID 0000.0001) implicSurfPress =  /* Surface Pressure implicit factor (0-1)*/
(PID.TID 0000.0001)                 1.000000000000000E+00
(PID.TID 0000.0001)     ;
(PID.TID 0000.0001) implicDiv2Dflow =  /* Barot. Flow Div. implicit factor (0-1)*/
(PID.TID 0000.0001)                 1.000000000000000E+00
(PID.TID 0000.0001)     ;
(PID.TID 0000.0001) uniformLin_PhiSurf = /* use uniform Bo_surf on/off flag*/
(PID.TID 0000.0001)                   T
(PID.TID 0000.0001)     ;
(PID.TID 0000.0001) uniformFreeSurfLev = /* free-surface level-index is uniform */
(PID.TID 0000.0001)                   T
(PID.TID 0000.0001)     ;
(PID.TID 0000.0001) hFacMin =   /* minimum partial cell factor (hFac) */
(PID.TID 0000.0001)                 1.000000000000000E-01
(PID.TID 0000.0001)     ;
(PID.TID 0000.0001) hFacMinDr = /* minimum partial cell thickness ( m) */
(PID.TID 0000.0001)                 0.000000000000000E+00
(PID.TID 0000.0001)     ;
(PID.TID 0000.0001) exactConserv =  /* Exact Volume Conservation on/off flag*/
(PID.TID 0000.0001)                   F
(PID.TID 0000.0001)     ;
(PID.TID 0000.0001) linFSConserveTr = /* Tracer correction for Lin Free Surface on/off flag*/
(PID.TID 0000.0001)                   F
(PID.TID 0000.0001)     ;
(PID.TID 0000.0001) nonlinFreeSurf = /* Non-linear Free Surf. options (-1,0,1,2,3)*/
(PID.TID 0000.0001)                       0
(PID.TID 0000.0001)      -1,0= Off ; 1,2,3= On, 2=+rescale gU,gV, 3=+update cg2d solv.
(PID.TID 0000.0001)     ;
(PID.TID 0000.0001) hFacInf =   /* lower threshold for hFac (nonlinFreeSurf only)*/
(PID.TID 0000.0001)                 2.000000000000000E-01
(PID.TID 0000.0001)     ;
(PID.TID 0000.0001) hFacSup =   /* upper threshold for hFac (nonlinFreeSurf only)*/
(PID.TID 0000.0001)                 2.000000000000000E+00
(PID.TID 0000.0001)     ;
(PID.TID 0000.0001) select_rStar = /* r* Vertical coord. options (=0 r coord.; >0 uses r*)*/
(PID.TID 0000.0001)                       0
(PID.TID 0000.0001)     ;
(PID.TID 0000.0001) useRealFreshWaterFlux = /* Real Fresh Water Flux on/off flag*/
(PID.TID 0000.0001)                   F
(PID.TID 0000.0001)     ;
(PID.TID 0000.0001) temp_EvPrRn = /* Temp. of Evap/Prec/R (UNSET=use local T)(oC)*/
(PID.TID 0000.0001)                 1.234567000000000E+05
(PID.TID 0000.0001)     ;
(PID.TID 0000.0001) salt_EvPrRn = /* Salin. of Evap/Prec/R (UNSET=use local S)(psu)*/
(PID.TID 0000.0001)                 0.000000000000000E+00
(PID.TID 0000.0001)     ;
(PID.TID 0000.0001) selectAddFluid = /* option for mass source/sink of fluid (=0: off) */
(PID.TID 0000.0001)                       0
(PID.TID 0000.0001)     ;
(PID.TID 0000.0001) temp_addMass = /* Temp. of addMass array (UNSET=use local T)(oC)*/
(PID.TID 0000.0001)                 1.234567000000000E+05
(PID.TID 0000.0001)     ;
(PID.TID 0000.0001) salt_addMass = /* Salin. of addMass array (UNSET=use local S)(psu)*/
(PID.TID 0000.0001)                 0.000000000000000E+00
(PID.TID 0000.0001)     ;
(PID.TID 0000.0001) convertFW2Salt = /* convert F.W. Flux to Salt Flux (-1=use local S)(psu)*/
(PID.TID 0000.0001)                 3.500000000000000E+01
(PID.TID 0000.0001)     ;
(PID.TID 0000.0001) use3Dsolver = /* use 3-D pressure solver on/off flag */
(PID.TID 0000.0001)                   F
(PID.TID 0000.0001)     ;
(PID.TID 0000.0001) nonHydrostatic =  /* Non-Hydrostatic on/off flag */
(PID.TID 0000.0001)                   F
(PID.TID 0000.0001)     ;
(PID.TID 0000.0001) nh_Am2 = /* Non-Hydrostatic terms scaling factor */
(PID.TID 0000.0001)                 1.000000000000000E+00
(PID.TID 0000.0001)     ;
(PID.TID 0000.0001) implicitNHPress = /* Non-Hyd Pressure implicit factor (0-1)*/
(PID.TID 0000.0001)                 1.000000000000000E+00
(PID.TID 0000.0001)     ;
(PID.TID 0000.0001) selectNHfreeSurf = /* Non-Hyd (free-)Surface option */
(PID.TID 0000.0001)                       0
(PID.TID 0000.0001)     ;
(PID.TID 0000.0001) quasiHydrostatic = /* Quasi-Hydrostatic on/off flag */
(PID.TID 0000.0001)                   F
(PID.TID 0000.0001)     ;
(PID.TID 0000.0001) calc_wVelocity = /* vertical velocity calculation on/off flag */
(PID.TID 0000.0001)                   T
(PID.TID 0000.0001)     ;
(PID.TID 0000.0001) momStepping =  /* Momentum equation on/off flag */
(PID.TID 0000.0001)                   T
(PID.TID 0000.0001)     ;
(PID.TID 0000.0001) vectorInvariantMomentum= /* Vector-Invariant Momentum on/off */
(PID.TID 0000.0001)                   F
(PID.TID 0000.0001)     ;
(PID.TID 0000.0001) momAdvection =  /* Momentum advection on/off flag */
(PID.TID 0000.0001)                   T
(PID.TID 0000.0001)     ;
(PID.TID 0000.0001) momViscosity =  /* Momentum viscosity on/off flag */
(PID.TID 0000.0001)                   T
(PID.TID 0000.0001)     ;
(PID.TID 0000.0001) momImplVertAdv= /* Momentum implicit vert. advection on/off*/
(PID.TID 0000.0001)                   F
(PID.TID 0000.0001)     ;
(PID.TID 0000.0001) implicitViscosity = /* Implicit viscosity on/off flag */
(PID.TID 0000.0001)                   T
(PID.TID 0000.0001)     ;
(PID.TID 0000.0001) metricTerms =  /* metric-Terms on/off flag */
(PID.TID 0000.0001)                   F
(PID.TID 0000.0001)     ;
(PID.TID 0000.0001) useNHMTerms = /* Non-Hydrostatic Metric-Terms on/off */
(PID.TID 0000.0001)                   F
(PID.TID 0000.0001)     ;
(PID.TID 0000.0001) selectCoriMap = /* Coriolis Map options (0,1,2,3)*/
(PID.TID 0000.0001)                       1
(PID.TID 0000.0001)     0= f-Plane ; 1= Beta-Plane ; 2= Spherical ; 3= read from file
(PID.TID 0000.0001)     ;
(PID.TID 0000.0001) use3dCoriolis = /* 3-D Coriolis on/off flag */
(PID.TID 0000.0001)                   F
(PID.TID 0000.0001)     ;
(PID.TID 0000.0001) useCoriolis =  /* Coriolis on/off flag */
(PID.TID 0000.0001)                   T
(PID.TID 0000.0001)     ;
(PID.TID 0000.0001) useCDscheme =  /* CD scheme on/off flag */
(PID.TID 0000.0001)                   F
(PID.TID 0000.0001)     ;
(PID.TID 0000.0001) useEnergyConservingCoriolis= /* Flx-Form Coriolis scheme flag */
(PID.TID 0000.0001)                   F
(PID.TID 0000.0001)     ;
(PID.TID 0000.0001) useJamartWetPoints= /* Coriolis WetPoints method flag */
(PID.TID 0000.0001)                   F
(PID.TID 0000.0001)     ;
(PID.TID 0000.0001) useJamartMomAdv= /* V.I Non-linear terms Jamart flag */
(PID.TID 0000.0001)                   F
(PID.TID 0000.0001)     ;
(PID.TID 0000.0001) useAbsVorticity= /* V.I Works with f+zeta in Coriolis */
(PID.TID 0000.0001)                   F
(PID.TID 0000.0001)     ;
(PID.TID 0000.0001) selectVortScheme= /* V.I Scheme selector for Vorticity-Term */
(PID.TID 0000.0001)               123456789
(PID.TID 0000.0001)    = 0 : enstrophy (Shallow-Water Eq.) conserving scheme by Sadourny, JAS 75
(PID.TID 0000.0001)    = 1 : same as 0 with modified hFac
(PID.TID 0000.0001)    = 2 : energy conserving scheme (used by Sadourny in JAS 75 paper)
(PID.TID 0000.0001)    = 3 : energy (general) and enstrophy (2D, nonDiv.) conserving scheme
(PID.TID 0000.0001)          from Sadourny (Burridge & Haseler, ECMWF Rep.4, 1977)
(PID.TID 0000.0001)     ;
(PID.TID 0000.0001) upwindVorticity= /* V.I Upwind bias vorticity flag */
(PID.TID 0000.0001)                   F
(PID.TID 0000.0001)     ;
(PID.TID 0000.0001) highOrderVorticity= /* V.I High order vort. advect. flag */
(PID.TID 0000.0001)                   F
(PID.TID 0000.0001)     ;
(PID.TID 0000.0001) upwindShear= /* V.I Upwind vertical Shear advection flag */
(PID.TID 0000.0001)                   F
(PID.TID 0000.0001)     ;
(PID.TID 0000.0001) selectKEscheme= /* V.I Kinetic Energy scheme selector */
(PID.TID 0000.0001)                       0
(PID.TID 0000.0001)     ;
(PID.TID 0000.0001) momForcing =  /* Momentum forcing on/off flag */
(PID.TID 0000.0001)                   T
(PID.TID 0000.0001)     ;
(PID.TID 0000.0001) momPressureForcing =  /* Momentum pressure term on/off flag */
(PID.TID 0000.0001)                   T
(PID.TID 0000.0001)     ;
(PID.TID 0000.0001) implicitIntGravWave= /* Implicit Internal Gravity Wave flag */
(PID.TID 0000.0001)                   F
(PID.TID 0000.0001)     ;
(PID.TID 0000.0001) staggerTimeStep =    /* Stagger time stepping on/off flag */
(PID.TID 0000.0001)                   T
(PID.TID 0000.0001)     ;
(PID.TID 0000.0001) doResetHFactors = /* reset thickness factors @ each time-step */
(PID.TID 0000.0001)                   F
(PID.TID 0000.0001)     ;
(PID.TID 0000.0001) multiDimAdvection =  /* enable/disable Multi-Dim Advection */
(PID.TID 0000.0001)                   T
(PID.TID 0000.0001)     ;
(PID.TID 0000.0001) useMultiDimAdvec =   /* Multi-Dim Advection is/is-not used */
(PID.TID 0000.0001)                   T
(PID.TID 0000.0001)     ;
(PID.TID 0000.0001) implicitDiffusion = /* Implicit Diffusion on/off flag */
(PID.TID 0000.0001)                   T
(PID.TID 0000.0001)     ;
(PID.TID 0000.0001) tempStepping =  /* Temperature equation on/off flag */
(PID.TID 0000.0001)                   T
(PID.TID 0000.0001)     ;
(PID.TID 0000.0001) tempAdvection = /* Temperature advection on/off flag */
(PID.TID 0000.0001)                   T
(PID.TID 0000.0001)     ;
(PID.TID 0000.0001) tempImplVertAdv = /* Temp. implicit vert. advection on/off */
(PID.TID 0000.0001)                   F
(PID.TID 0000.0001)     ;
(PID.TID 0000.0001) tempForcing  =  /* Temperature forcing on/off flag */
(PID.TID 0000.0001)                   T
(PID.TID 0000.0001)     ;
(PID.TID 0000.0001) doThetaClimRelax = /* apply SST relaxation on/off flag */
(PID.TID 0000.0001)                   F
(PID.TID 0000.0001)     ;
(PID.TID 0000.0001) tempIsActiveTr = /* Temp. is a dynamically Active Tracer */
(PID.TID 0000.0001)                   T
(PID.TID 0000.0001)     ;
(PID.TID 0000.0001) saltStepping =  /* Salinity equation on/off flag */
(PID.TID 0000.0001)                   F
(PID.TID 0000.0001)     ;
(PID.TID 0000.0001) saltAdvection = /* Salinity advection on/off flag */
(PID.TID 0000.0001)                   F
(PID.TID 0000.0001)     ;
(PID.TID 0000.0001) saltImplVertAdv = /* Sali. implicit vert. advection on/off */
(PID.TID 0000.0001)                   F
(PID.TID 0000.0001)     ;
(PID.TID 0000.0001) saltForcing  =  /* Salinity forcing on/off flag */
(PID.TID 0000.0001)                   F
(PID.TID 0000.0001)     ;
(PID.TID 0000.0001) doSaltClimRelax = /* apply SSS relaxation on/off flag */
(PID.TID 0000.0001)                   F
(PID.TID 0000.0001)     ;
(PID.TID 0000.0001) saltIsActiveTr = /* Salt  is a dynamically Active Tracer */
(PID.TID 0000.0001)                   F
(PID.TID 0000.0001)     ;
(PID.TID 0000.0001)  readBinaryPrec = /* Precision used for reading binary files */
(PID.TID 0000.0001)                      64
(PID.TID 0000.0001)     ;
(PID.TID 0000.0001) writeBinaryPrec = /* Precision used for writing binary files */
(PID.TID 0000.0001)                      64
(PID.TID 0000.0001)     ;
(PID.TID 0000.0001)  globalFiles = /* write "global" (=not per tile) files */
(PID.TID 0000.0001)                   F
(PID.TID 0000.0001)     ;
(PID.TID 0000.0001)  useSingleCpuIO = /* only master MPI process does I/O */
(PID.TID 0000.0001)                   T
(PID.TID 0000.0001)     ;
(PID.TID 0000.0001)  useSingleCpuInput = /* only master process reads input */
(PID.TID 0000.0001)                   T
(PID.TID 0000.0001)     ;
(PID.TID 0000.0001) /* debLev[*]  : level of debug & auxiliary message printing */
(PID.TID 0000.0001) debLevZero =  0 ; /* level of disabled aux. msg printing */
(PID.TID 0000.0001)    debLevA =  1 ; /* level of minimum  aux. msg printing */
(PID.TID 0000.0001)    debLevB =  2 ; /* level of low aux. print (report read-file opening)*/
(PID.TID 0000.0001)    debLevC =  3 ; /* level of moderate debug prt (most pkgs debug msg) */
(PID.TID 0000.0001)    debLevD =  4 ; /* level of enhanced debug prt (add DEBUG_STATS prt) */
(PID.TID 0000.0001)    debLevE =  5 ; /* level of extensive debug printing */
(PID.TID 0000.0001) debugLevel =  /* select debug printing level */
(PID.TID 0000.0001)                       2
(PID.TID 0000.0001)     ;
(PID.TID 0000.0001) //
(PID.TID 0000.0001) // Elliptic solver(s) paramters ( PARM02 in namelist )
(PID.TID 0000.0001) //
(PID.TID 0000.0001) cg2dMaxIters =   /* Upper limit on 2d con. grad iterations  */
(PID.TID 0000.0001)                    1000
(PID.TID 0000.0001)     ;
(PID.TID 0000.0001) cg2dChkResFreq =   /* 2d con. grad convergence test frequency */
(PID.TID 0000.0001)                       1
(PID.TID 0000.0001)     ;
(PID.TID 0000.0001) cg2dUseMinResSol= /* use cg2d last-iter(=0) / min-resid.(=1) solution */
(PID.TID 0000.0001)                       0
(PID.TID 0000.0001)     ;
(PID.TID 0000.0001) cg2dTargetResidual =   /* 2d con. grad target residual  */
(PID.TID 0000.0001)                 1.000000000000000E-13
(PID.TID 0000.0001)     ;
(PID.TID 0000.0001) cg2dTargetResWunit =   /* CG2d target residual [W units] */
(PID.TID 0000.0001)                -1.000000000000000E+00
(PID.TID 0000.0001)     ;
(PID.TID 0000.0001) cg2dPreCondFreq =   /* Freq. for updating cg2d preconditioner */
(PID.TID 0000.0001)                       1
(PID.TID 0000.0001)     ;
(PID.TID 0000.0001) useSRCGSolver =  /* use single reduction CG solver(s) */
(PID.TID 0000.0001)                   F
(PID.TID 0000.0001)     ;
(PID.TID 0000.0001) printResidualFreq = /* Freq. for printing CG residual */
(PID.TID 0000.0001)                       0
(PID.TID 0000.0001)     ;
(PID.TID 0000.0001) //
(PID.TID 0000.0001) // Time stepping paramters ( PARM03 in namelist )
(PID.TID 0000.0001) //
(PID.TID 0000.0001) deltaTMom =   /* Momentum equation timestep ( s ) */
(PID.TID 0000.0001)                 1.500000000000000E+01
(PID.TID 0000.0001)     ;
(PID.TID 0000.0001) deltaTFreeSurf = /* FreeSurface equation timestep ( s ) */
(PID.TID 0000.0001)                 1.500000000000000E+01
(PID.TID 0000.0001)     ;
(PID.TID 0000.0001) dTtracerLev =  /* Tracer equation timestep ( s ) */
(PID.TID 0000.0001)   100 @  1.500000000000000E+01              /* K =  1:100 */
(PID.TID 0000.0001)     ;
(PID.TID 0000.0001) deltaTClock  =   /* Model clock timestep ( s ) */
(PID.TID 0000.0001)                 1.500000000000000E+01
(PID.TID 0000.0001)     ;
(PID.TID 0000.0001) cAdjFreq =   /* Convective adjustment interval ( s ) */
(PID.TID 0000.0001)                 0.000000000000000E+00
(PID.TID 0000.0001)     ;
(PID.TID 0000.0001) momForcingOutAB = /* =1: take Momentum Forcing out of Adams-Bash. stepping */
(PID.TID 0000.0001)                       0
(PID.TID 0000.0001)     ;
(PID.TID 0000.0001) tracForcingOutAB = /* =1: take T,S,pTr Forcing out of Adams-Bash. stepping */
(PID.TID 0000.0001)                       0
(PID.TID 0000.0001)     ;
(PID.TID 0000.0001) momDissip_In_AB = /* put Dissipation Tendency in Adams-Bash. stepping */
(PID.TID 0000.0001)                   T
(PID.TID 0000.0001)     ;
(PID.TID 0000.0001) doAB_onGtGs = /* apply AB on Tendencies (rather than on T,S)*/
(PID.TID 0000.0001)                   T
(PID.TID 0000.0001)     ;
(PID.TID 0000.0001) abEps =   /* Adams-Bashforth-2 stabilizing weight */
(PID.TID 0000.0001)                 1.000000000000000E-01
(PID.TID 0000.0001)     ;
(PID.TID 0000.0001) pickupStrictlyMatch= /* stop if pickup do not strictly match */
(PID.TID 0000.0001)                   T
(PID.TID 0000.0001)     ;
(PID.TID 0000.0001) nIter0   =   /* Run starting timestep number */
(PID.TID 0000.0001)                       0
(PID.TID 0000.0001)     ;
(PID.TID 0000.0001) nTimeSteps = /* Number of timesteps */
(PID.TID 0000.0001)                    7200
(PID.TID 0000.0001)     ;
(PID.TID 0000.0001) nEndIter =   /* Run ending timestep number */
(PID.TID 0000.0001)                    7200
(PID.TID 0000.0001)     ;
(PID.TID 0000.0001) baseTime =   /* Model base time ( s ) */
(PID.TID 0000.0001)                 0.000000000000000E+00
(PID.TID 0000.0001)     ;
(PID.TID 0000.0001) startTime =  /* Run start time ( s ) */
(PID.TID 0000.0001)                 0.000000000000000E+00
(PID.TID 0000.0001)     ;
(PID.TID 0000.0001) endTime  =   /* Integration ending time ( s ) */
(PID.TID 0000.0001)                 1.080000000000000E+05
(PID.TID 0000.0001)     ;
(PID.TID 0000.0001) pChkPtFreq = /* Permanent restart/pickup file interval ( s ) */
(PID.TID 0000.0001)                 2.160000000000000E+04
(PID.TID 0000.0001)     ;
(PID.TID 0000.0001) chkPtFreq  = /* Rolling restart/pickup file interval ( s ) */
(PID.TID 0000.0001)                 0.000000000000000E+00
(PID.TID 0000.0001)     ;
(PID.TID 0000.0001) pickup_write_mdsio =   /* Model IO flag. */
(PID.TID 0000.0001)                   T
(PID.TID 0000.0001)     ;
(PID.TID 0000.0001) pickup_read_mdsio =   /* Model IO flag. */
(PID.TID 0000.0001)                   T
(PID.TID 0000.0001)     ;
(PID.TID 0000.0001) pickup_write_immed =   /* Model IO flag. */
(PID.TID 0000.0001)                   F
(PID.TID 0000.0001)     ;
(PID.TID 0000.0001) writePickupAtEnd =   /* Model IO flag. */
(PID.TID 0000.0001)                   T
(PID.TID 0000.0001)     ;
(PID.TID 0000.0001) dumpFreq =   /* Model state write out interval ( s ). */
(PID.TID 0000.0001)                 7.200000000000000E+03
(PID.TID 0000.0001)     ;
(PID.TID 0000.0001) dumpInitAndLast= /* write out Initial & Last iter. model state */
(PID.TID 0000.0001)                   T
(PID.TID 0000.0001)     ;
(PID.TID 0000.0001) snapshot_mdsio =   /* Model IO flag. */
(PID.TID 0000.0001)                   T
(PID.TID 0000.0001)     ;
(PID.TID 0000.0001) monitorFreq =   /* Monitor output interval ( s ). */
(PID.TID 0000.0001)                 7.200000000000000E+03
(PID.TID 0000.0001)     ;
(PID.TID 0000.0001) monitorSelect = /* select group of variables to monitor */
(PID.TID 0000.0001)                       3
(PID.TID 0000.0001)     ;
(PID.TID 0000.0001) monitor_stdio =   /* Model IO flag. */
(PID.TID 0000.0001)                   T
(PID.TID 0000.0001)     ;
(PID.TID 0000.0001) externForcingPeriod =   /* forcing period (s) */
(PID.TID 0000.0001)                 0.000000000000000E+00
(PID.TID 0000.0001)     ;
(PID.TID 0000.0001) externForcingCycle =   /* period of the cyle (s). */
(PID.TID 0000.0001)                 0.000000000000000E+00
(PID.TID 0000.0001)     ;
(PID.TID 0000.0001) tauThetaClimRelax =   /* relaxation time scale (s) */
(PID.TID 0000.0001)                 0.000000000000000E+00
(PID.TID 0000.0001)     ;
(PID.TID 0000.0001) tauSaltClimRelax =   /* relaxation time scale (s) */
(PID.TID 0000.0001)                 0.000000000000000E+00
(PID.TID 0000.0001)     ;
(PID.TID 0000.0001) latBandClimRelax =   /* max. Lat. where relaxation */
(PID.TID 0000.0001)                 1.500000000000000E+04
(PID.TID 0000.0001)     ;
(PID.TID 0000.0001) //
(PID.TID 0000.0001) // Gridding paramters ( PARM04 in namelist )
(PID.TID 0000.0001) //
(PID.TID 0000.0001) usingCartesianGrid = /* Cartesian coordinates flag ( True/False ) */
(PID.TID 0000.0001)                   T
(PID.TID 0000.0001)     ;
(PID.TID 0000.0001) usingCylindricalGrid = /* Cylindrical coordinates flag ( True/False ) */
(PID.TID 0000.0001)                   F
(PID.TID 0000.0001)     ;
(PID.TID 0000.0001) usingSphericalPolarGrid = /* Spherical coordinates flag ( True/False ) */
(PID.TID 0000.0001)                   F
(PID.TID 0000.0001)     ;
(PID.TID 0000.0001) usingCurvilinearGrid = /* Curvilinear coordinates flag ( True/False ) */
(PID.TID 0000.0001)                   F
(PID.TID 0000.0001)     ;
(PID.TID 0000.0001) selectSigmaCoord = /* Hybrid-Sigma Vert. Coordinate option */
(PID.TID 0000.0001)                       0
(PID.TID 0000.0001)     ;
(PID.TID 0000.0001) Ro_SeaLevel = /* r(1) ( units of r ==  m ) */
(PID.TID 0000.0001)                 0.000000000000000E+00
(PID.TID 0000.0001)     ;
(PID.TID 0000.0001) rSigmaBnd = /* r/sigma transition ( units of r ==  m ) */
(PID.TID 0000.0001)                 1.234567000000000E+05
(PID.TID 0000.0001)     ;
(PID.TID 0000.0001) rkSign =   /* index orientation relative to vertical coordinate */
(PID.TID 0000.0001)                -1.000000000000000E+00
(PID.TID 0000.0001)     ;
(PID.TID 0000.0001) gravitySign = /* gravity orientation relative to vertical coordinate */
(PID.TID 0000.0001)                -1.000000000000000E+00
(PID.TID 0000.0001)     ;
(PID.TID 0000.0001) mass2rUnit = /* convert mass per unit area [kg/m2] to r-units [m] */
(PID.TID 0000.0001)                 1.000200040008002E-03
(PID.TID 0000.0001)     ;
(PID.TID 0000.0001) rUnit2mass = /* convert r-units [m] to mass per unit area [kg/m2] */
(PID.TID 0000.0001)                 9.998000000000000E+02
(PID.TID 0000.0001)     ;
(PID.TID 0000.0001) drC =   /* C spacing ( units of r ) */
(PID.TID 0000.0001)                 2.160197349097110E+00,      /* K =  1 */
(PID.TID 0000.0001)                 4.268476490917204E+00,      /* K =  2 */
(PID.TID 0000.0001)                 4.165887879138223E+00,      /* K =  3 */
(PID.TID 0000.0001)                 4.065764883203475E+00,      /* K =  4 */
(PID.TID 0000.0001)                 3.968048244474149E+00,      /* K =  5 */
(PID.TID 0000.0001)                 3.872680128534226E+00,      /* K =  6 */
(PID.TID 0000.0001)                 3.779604090960689E+00,      /* K =  7 */
(PID.TID 0000.0001)                 3.688765043916412E+00,      /* K =  8 */
(PID.TID 0000.0001)                 3.600109223545968E+00,      /* K =  9 */
(PID.TID 0000.0001)                 3.513584158155032E+00,      /* K = 10 */
(PID.TID 0000.0001)                 3.429138637154566E+00,      /* K = 11 */
(PID.TID 0000.0001)                 3.346722680751403E+00,      /* K = 12 */
(PID.TID 0000.0001)                 3.266287510367288E+00,      /* K = 13 */
(PID.TID 0000.0001)                 3.187785519768858E+00,      /* K = 14 */
(PID.TID 0000.0001)                 3.111170246891496E+00,      /* K = 15 */
(PID.TID 0000.0001)                 3.036396346340368E+00,      /* K = 16 */
(PID.TID 0000.0001)                 2.963419562552367E+00,      /* K = 17 */
(PID.TID 0000.0001)                 2.892196703603085E+00,      /* K = 18 */
(PID.TID 0000.0001)                 2.822685615643309E+00,      /* K = 19 */
(PID.TID 0000.0001)                 2.754845157949907E+00,      /* K = 20 */
(PID.TID 0000.0001)                 2.688635178576353E+00,      /* K = 21 */
(PID.TID 0000.0001)                 2.624016490588450E+00,      /* K = 22 */
(PID.TID 0000.0001)                 2.560950848871215E+00,      /* K = 23 */
(PID.TID 0000.0001)                 2.499400927493190E+00,      /* K = 24 */
(PID.TID 0000.0001)                 2.439330297614770E+00,      /* K = 25 */
(PID.TID 0000.0001)                 2.380703405927489E+00,      /* K = 26 */
(PID.TID 0000.0001)                 2.323485553611495E+00,      /* K = 27 */
(PID.TID 0000.0001)                 2.267642875798760E+00,      /* K = 28 */
(PID.TID 0000.0001)                 2.213142321529876E+00,      /* K = 29 */
(PID.TID 0000.0001)                 2.159951634192559E+00,      /* K = 30 */
(PID.TID 0000.0001)                 2.108039332430311E+00,      /* K = 31 */
(PID.TID 0000.0001)                 2.057374691509905E+00,      /* K = 32 */
(PID.TID 0000.0001)                 2.007927725136697E+00,      /* K = 33 */
(PID.TID 0000.0001)                 1.959669167706986E+00,      /* K = 34 */
(PID.TID 0000.0001)                 1.912570456986916E+00,      /* K = 35 */
(PID.TID 0000.0001)                 1.866603717207679E+00,      /* K = 36 */
(PID.TID 0000.0001)                 1.821741742567009E+00,      /* K = 37 */
(PID.TID 0000.0001)                 1.777957981127196E+00,      /* K = 38 */
(PID.TID 0000.0001)                 1.735226519100095E+00,      /* K = 39 */
(PID.TID 0000.0001)                 1.693522065509840E+00,      /* K = 40 */
(PID.TID 0000.0001)                 1.652819937224159E+00,      /* K = 41 */
(PID.TID 0000.0001)                 1.613096044345458E+00,      /* K = 42 */
(PID.TID 0000.0001)                 1.574326875953012E+00,      /* K = 43 */
(PID.TID 0000.0001)                 1.536489486187827E+00,      /* K = 44 */
(PID.TID 0000.0001)                 1.499561480671944E+00,      /* K = 45 */
(PID.TID 0000.0001)                 1.463521003254131E+00,      /* K = 46 */
(PID.TID 0000.0001)                 1.428346723074140E+00,      /* K = 47 */
(PID.TID 0000.0001)                 1.394017821937860E+00,      /* K = 48 */
(PID.TID 0000.0001)                 1.360513981995887E+00,      /* K = 49 */
(PID.TID 0000.0001)                 1.327815373718239E+00,      /* K = 50 */
(PID.TID 0000.0001)                 1.295902644158079E+00,      /* K = 51 */
(PID.TID 0000.0001)                 1.264756905497510E+00,      /* K = 52 */
(PID.TID 0000.0001)                 1.234359723868664E+00,      /* K = 53 */
(PID.TID 0000.0001)                 1.204693108443458E+00,      /* K = 54 */
(PID.TID 0000.0001)                 1.175739500785574E+00,      /* K = 55 */
(PID.TID 0000.0001)                 1.147481764458347E+00,      /* K = 56 */
(PID.TID 0000.0001)                 1.119903174882425E+00,      /* K = 57 */
(PID.TID 0000.0001)                 1.092987409437182E+00,      /* K = 58 */
(PID.TID 0000.0001)                 1.066718537800039E+00,      /* K = 59 */
(PID.TID 0000.0001)                 1.041081012517969E+00,      /* K = 60 */
(PID.TID 0000.0001)                 1.014209083336182E+00,      /* K = 61 */
(PID.TID 0000.0001)     3 @  1.000000000000000E+00,             /* K = 62: 64 */
(PID.TID 0000.0001)                 1.009825193735121E+00,      /* K = 65 */
(PID.TID 0000.0001)                 1.032205276222085E+00,      /* K = 66 */
(PID.TID 0000.0001)                 1.057624228779317E+00,      /* K = 67 */
(PID.TID 0000.0001)                 1.083669145148197E+00,      /* K = 68 */
(PID.TID 0000.0001)                 1.110355440231940E+00,      /* K = 69 */
(PID.TID 0000.0001)                 1.137698908539156E+00,      /* K = 70 */
(PID.TID 0000.0001)                 1.165715733531969E+00,      /* K = 71 */
(PID.TID 0000.0001)                 1.194422497204327E+00,      /* K = 72 */
(PID.TID 0000.0001)                 1.223836189896201E+00,      /* K = 73 */
(PID.TID 0000.0001)                 1.253974220349460E+00,      /* K = 74 */
(PID.TID 0000.0001)                 1.284854426011378E+00,      /* K = 75 */
(PID.TID 0000.0001)                 1.316495083591883E+00,      /* K = 76 */
(PID.TID 0000.0001)                 1.348914919880776E+00,      /* K = 77 */
(PID.TID 0000.0001)                 1.382133122831344E+00,      /* K = 78 */
(PID.TID 0000.0001)                 1.416169352916909E+00,      /* K = 79 */
(PID.TID 0000.0001)                 1.451043754767046E+00,      /* K = 80 */
(PID.TID 0000.0001)                 1.486776969090353E+00,      /* K = 81 */
(PID.TID 0000.0001)                 1.523390144890824E+00,      /* K = 82 */
(PID.TID 0000.0001)                 1.560904951985071E+00,      /* K = 83 */
(PID.TID 0000.0001)                 1.599343593827782E+00,      /* K = 84 */
(PID.TID 0000.0001)                 1.638728820653027E+00,      /* K = 85 */
(PID.TID 0000.0001)                 1.679083942939175E+00,      /* K = 86 */
(PID.TID 0000.0001)                 1.720432845205392E+00,      /* K = 87 */
(PID.TID 0000.0001)                 1.762800000147905E+00,      /* K = 88 */
(PID.TID 0000.0001)                 1.806210483124362E+00,      /* K = 89 */
(PID.TID 0000.0001)                 1.850689986994904E+00,      /* K = 90 */
(PID.TID 0000.0001)                 1.896264837328693E+00,      /* K = 91 */
(PID.TID 0000.0001)                 1.942962007984925E+00,      /* K = 92 */
(PID.TID 0000.0001)                 1.990809137077537E+00,      /* K = 93 */
(PID.TID 0000.0001)                 2.039834543333057E+00,      /* K = 94 */
(PID.TID 0000.0001)                 2.090067242851278E+00,      /* K = 95 */
(PID.TID 0000.0001)                 2.141536966278686E+00,      /* K = 96 */
(PID.TID 0000.0001)                 2.194274176404790E+00,      /* K = 97 */
(PID.TID 0000.0001)                 2.248310086191781E+00,      /* K = 98 */
(PID.TID 0000.0001)                 2.303676677248189E+00,      /* K = 99 */
(PID.TID 0000.0001)                 2.360406718757467E+00,      /* K =100 */
(PID.TID 0000.0001)                 1.194558374047700E+00       /* K =101 */
(PID.TID 0000.0001)     ;
(PID.TID 0000.0001) drF =   /* W spacing ( units of r ) */
(PID.TID 0000.0001)                 4.320394698194220E+00,      /* K =  1 */
(PID.TID 0000.0001)                 4.216558283640189E+00,      /* K =  2 */
(PID.TID 0000.0001)                 4.115217474636258E+00,      /* K =  3 */
(PID.TID 0000.0001)                 4.016312291770691E+00,      /* K =  4 */
(PID.TID 0000.0001)                 3.919784197177606E+00,      /* K =  5 */
(PID.TID 0000.0001)                 3.825576059890846E+00,      /* K =  6 */
(PID.TID 0000.0001)                 3.733632122030531E+00,      /* K =  7 */
(PID.TID 0000.0001)                 3.643897965802293E+00,      /* K =  8 */
(PID.TID 0000.0001)                 3.556320481289644E+00,      /* K =  9 */
(PID.TID 0000.0001)                 3.470847835020420E+00,      /* K = 10 */
(PID.TID 0000.0001)                 3.387429439288711E+00,      /* K = 11 */
(PID.TID 0000.0001)                 3.306015922214096E+00,      /* K = 12 */
(PID.TID 0000.0001)                 3.226559098520481E+00,      /* K = 13 */
(PID.TID 0000.0001)                 3.149011941017235E+00,      /* K = 14 */
(PID.TID 0000.0001)                 3.073328552765757E+00,      /* K = 15 */
(PID.TID 0000.0001)                 2.999464139914980E+00,      /* K = 16 */
(PID.TID 0000.0001)                 2.927374985189755E+00,      /* K = 17 */
(PID.TID 0000.0001)                 2.857018422016415E+00,      /* K = 18 */
(PID.TID 0000.0001)                 2.788352809270202E+00,      /* K = 19 */
(PID.TID 0000.0001)                 2.721337506629613E+00,      /* K = 20 */
(PID.TID 0000.0001)                 2.655932850523093E+00,      /* K = 21 */
(PID.TID 0000.0001)                 2.592100130653806E+00,      /* K = 22 */
(PID.TID 0000.0001)                 2.529801567088624E+00,      /* K = 23 */
(PID.TID 0000.0001)                 2.469000287897756E+00,      /* K = 24 */
(PID.TID 0000.0001)                 2.409660307331784E+00,      /* K = 25 */
(PID.TID 0000.0001)                 2.351746504523194E+00,      /* K = 26 */
(PID.TID 0000.0001)                 2.295224602699796E+00,      /* K = 27 */
(PID.TID 0000.0001)                 2.240061148897725E+00,      /* K = 28 */
(PID.TID 0000.0001)                 2.186223494162026E+00,      /* K = 29 */
(PID.TID 0000.0001)                 2.133679774223093E+00,      /* K = 30 */
(PID.TID 0000.0001)                 2.082398890637530E+00,      /* K = 31 */
(PID.TID 0000.0001)                 2.032350492382280E+00,      /* K = 32 */
(PID.TID 0000.0001)                 1.983504957891114E+00,      /* K = 33 */
(PID.TID 0000.0001)                 1.935833377522857E+00,      /* K = 34 */
(PID.TID 0000.0001)                 1.889307536450973E+00,      /* K = 35 */
(PID.TID 0000.0001)                 1.843899897964384E+00,      /* K = 36 */
(PID.TID 0000.0001)                 1.799583587169634E+00,      /* K = 37 */
(PID.TID 0000.0001)                 1.756332375084757E+00,      /* K = 38 */
(PID.TID 0000.0001)                 1.714120663115434E+00,      /* K = 39 */
(PID.TID 0000.0001)                 1.672923467904247E+00,      /* K = 40 */
(PID.TID 0000.0001)                 1.632716406544071E+00,      /* K = 41 */
(PID.TID 0000.0001)                 1.593475682146844E+00,      /* K = 42 */
(PID.TID 0000.0001)                 1.555178069759179E+00,      /* K = 43 */
(PID.TID 0000.0001)                 1.517800902616476E+00,      /* K = 44 */
(PID.TID 0000.0001)                 1.481322058727412E+00,      /* K = 45 */
(PID.TID 0000.0001)                 1.445719947780850E+00,      /* K = 46 */
(PID.TID 0000.0001)                 1.410973498367431E+00,      /* K = 47 */
(PID.TID 0000.0001)                 1.377062145508289E+00,      /* K = 48 */
(PID.TID 0000.0001)                 1.343965818483486E+00,      /* K = 49 */
(PID.TID 0000.0001)                 1.311664928952993E+00,      /* K = 50 */
(PID.TID 0000.0001)                 1.280140359363165E+00,      /* K = 51 */
(PID.TID 0000.0001)                 1.249373451631856E+00,      /* K = 52 */
(PID.TID 0000.0001)                 1.219345996105473E+00,      /* K = 53 */
(PID.TID 0000.0001)                 1.190040220781444E+00,      /* K = 54 */
(PID.TID 0000.0001)                 1.161438780789704E+00,      /* K = 55 */
(PID.TID 0000.0001)                 1.133524748126990E+00,      /* K = 56 */
(PID.TID 0000.0001)                 1.106281601637860E+00,      /* K = 57 */
(PID.TID 0000.0001)                 1.079693217236504E+00,      /* K = 58 */
(PID.TID 0000.0001)                 1.053743858363574E+00,      /* K = 59 */
(PID.TID 0000.0001)                 1.028418166672365E+00,      /* K = 60 */
(PID.TID 0000.0001)     4 @  1.000000000000000E+00,             /* K = 61: 64 */
(PID.TID 0000.0001)                 1.019650387470241E+00,      /* K = 65 */
(PID.TID 0000.0001)                 1.044760164973929E+00,      /* K = 66 */
(PID.TID 0000.0001)                 1.070488292584705E+00,      /* K = 67 */
(PID.TID 0000.0001)                 1.096849997711689E+00,      /* K = 68 */
(PID.TID 0000.0001)                 1.123860882752190E+00,      /* K = 69 */
(PID.TID 0000.0001)                 1.151536934326122E+00,      /* K = 70 */
(PID.TID 0000.0001)                 1.179894532737815E+00,      /* K = 71 */
(PID.TID 0000.0001)                 1.208950461670838E+00,      /* K = 72 */
(PID.TID 0000.0001)                 1.238721918121564E+00,      /* K = 73 */
(PID.TID 0000.0001)                 1.269226522577355E+00,      /* K = 74 */
(PID.TID 0000.0001)                 1.300482329445401E+00,      /* K = 75 */
(PID.TID 0000.0001)                 1.332507837738365E+00,      /* K = 76 */
(PID.TID 0000.0001)                 1.365322002023187E+00,      /* K = 77 */
(PID.TID 0000.0001)                 1.398944243639500E+00,      /* K = 78 */
(PID.TID 0000.0001)                 1.433394462194317E+00,      /* K = 79 */
(PID.TID 0000.0001)                 1.468693047339775E+00,      /* K = 80 */
(PID.TID 0000.0001)                 1.504860890840930E+00,      /* K = 81 */
(PID.TID 0000.0001)                 1.541919398940718E+00,      /* K = 82 */
(PID.TID 0000.0001)                 1.579890505029424E+00,      /* K = 83 */
(PID.TID 0000.0001)                 1.618796682626140E+00,      /* K = 84 */
(PID.TID 0000.0001)                 1.658660958679914E+00,      /* K = 85 */
(PID.TID 0000.0001)                 1.699506927198435E+00,      /* K = 86 */
(PID.TID 0000.0001)                 1.741358763212350E+00,      /* K = 87 */
(PID.TID 0000.0001)                 1.784241237083460E+00,      /* K = 88 */
(PID.TID 0000.0001)                 1.828179729165265E+00,      /* K = 89 */
(PID.TID 0000.0001)                 1.873200244824543E+00,      /* K = 90 */
(PID.TID 0000.0001)                 1.919329429832842E+00,      /* K = 91 */
(PID.TID 0000.0001)                 1.966594586137007E+00,      /* K = 92 */
(PID.TID 0000.0001)                 2.015023688018067E+00,      /* K = 93 */
(PID.TID 0000.0001)                 2.064645398648046E+00,      /* K = 94 */
(PID.TID 0000.0001)                 2.115489087054509E+00,      /* K = 95 */
(PID.TID 0000.0001)                 2.167584845502862E+00,      /* K = 96 */
(PID.TID 0000.0001)                 2.220963507306716E+00,      /* K = 97 */
(PID.TID 0000.0001)                 2.275656665076845E+00,      /* K = 98 */
(PID.TID 0000.0001)                 2.331696689419534E+00,      /* K = 99 */
(PID.TID 0000.0001)                 2.389116748095400E+00       /* K =100 */
(PID.TID 0000.0001)     ;
(PID.TID 0000.0001) delX = /* U spacing ( m - cartesian, degrees - spherical ) */
(PID.TID 0000.0001)                 1.263294638016668E+03,      /* I =  1 */
(PID.TID 0000.0001)                 1.237496063806571E+03,      /* I =  2 */
(PID.TID 0000.0001)                 1.212224339320398E+03,      /* I =  3 */
(PID.TID 0000.0001)      . . .
(PID.TID 0000.0001)                 4.790113490274632E+02,      /* I = 48 */
(PID.TID 0000.0001)                 4.692291418815790E+02,      /* I = 49 */
(PID.TID 0000.0001)                 4.596467036489769E+02,      /* I = 50 */
(PID.TID 0000.0001)                 4.502599547167311E+02,      /* I = 51 */
(PID.TID 0000.0001)                 4.410648987843862E+02,      /* I = 52 */
(PID.TID 0000.0001)                 4.320576211625778E+02,      /* I = 53 */
(PID.TID 0000.0001)      . . .
(PID.TID 0000.0001)                 2.000000000000000E+02,      /* I = 98 */
(PID.TID 0000.0001)                 2.000000000000000E+02,      /* I = 99 */
(PID.TID 0000.0001)                 2.000000000000000E+02,      /* I =100 */
(PID.TID 0000.0001)                 2.000000000000000E+02,      /* I =101 */
(PID.TID 0000.0001)                 2.000000000000000E+02,      /* I =102 */
(PID.TID 0000.0001)                 2.000000000000000E+02,      /* I =103 */
(PID.TID 0000.0001)      . . .
(PID.TID 0000.0001)                 3.612641354876311E+02,      /* I =148 */
(PID.TID 0000.0001)                 3.687955530665730E+02,      /* I =149 */
(PID.TID 0000.0001)                 3.764839811128614E+02,      /* I =150 */
(PID.TID 0000.0001)                 3.843326928863569E+02,      /* I =151 */
(PID.TID 0000.0001)                 3.923450298858749E+02,      /* I =152 */
(PID.TID 0000.0001)                 4.005244032717896E+02,      /* I =153 */
(PID.TID 0000.0001)      . . .
(PID.TID 0000.0001)                 1.013599012055986E+03,      /* I =198 */
(PID.TID 0000.0001)                 1.034729915092050E+03,      /* I =199 */
(PID.TID 0000.0001)                 1.056301342495056E+03       /* I =200 */
(PID.TID 0000.0001)     ;
(PID.TID 0000.0001) delY = /* V spacing ( m - cartesian, degrees - spherical ) */
(PID.TID 0000.0001)                 5.000000000000000E+03       /* J =  1 */
(PID.TID 0000.0001)     ;
(PID.TID 0000.0001) xgOrigin = /* X-axis origin of West  edge (cartesian: m, lat-lon: deg) */
(PID.TID 0000.0001)                 0.000000000000000E+00
(PID.TID 0000.0001)     ;
(PID.TID 0000.0001) ygOrigin = /* Y-axis origin of South edge (cartesian: m, lat-lon: deg) */
(PID.TID 0000.0001)                 0.000000000000000E+00
(PID.TID 0000.0001)     ;
(PID.TID 0000.0001) rSphere =  /* Radius ( ignored - cartesian, m - spherical ) */
(PID.TID 0000.0001)                 6.370000000000000E+06
(PID.TID 0000.0001)     ;
(PID.TID 0000.0001) deepAtmosphere = /* Deep/Shallow Atmosphere flag (True/False) */
(PID.TID 0000.0001)                   F
(PID.TID 0000.0001)     ;
(PID.TID 0000.0001) xC =  /* xC(:,1,:,1) : P-point X coord ( deg. or m if cartesian) */
(PID.TID 0000.0001)                 6.316473190083342E+02,      /* I =  1 */
(PID.TID 0000.0001)                 1.882042669919954E+03,      /* I =  2 */
[...]
 cg2d: Sum(rhs),rhsMax =  -1.60973456786451E-11  1.04250135984787E-01
 cg2d: Sum(rhs),rhsMax =  -1.55863100204101E-11  1.07917416190851E-01
 cg2d: Sum(rhs),rhsMax =  -1.50565115930590E-11  1.11369891125128E-01
 cg2d: Sum(rhs),rhsMax =  -1.45524703398792E-11  1.14553047088862E-01
 cg2d: Sum(rhs),rhsMax =  -1.41268108322379E-11  1.17434604794166E-01
 cg2d: Sum(rhs),rhsMax =  -1.37726496873825E-11  1.20016569102473E-01
 cg2d: Sum(rhs),rhsMax =  -1.34323663303348E-11  1.22425054827712E-01
 cg2d: Sum(rhs),rhsMax =  -1.31359367827599E-11  1.24458822237458E-01
 cg2d: Sum(rhs),rhsMax =  -1.28945742972064E-11  1.26247051691853E-01
 cg2d: Sum(rhs),rhsMax =  -1.27198251931304E-11  1.27650511251094E-01
 cg2d: Sum(rhs),rhsMax =  -1.25586208099548E-11  1.28702015074900E-01
 cg2d: Sum(rhs),rhsMax =  -1.23911991778414E-11  1.29456880206360E-01
 cg2d: Sum(rhs),rhsMax =  -1.22344356867643E-11  1.29910109786464E-01
 cg2d: Sum(rhs),rhsMax =  -1.20772281064774E-11  1.30048941974566E-01
 cg2d: Sum(rhs),rhsMax =  -1.20234933120855E-11  1.29875252799700E-01
 cg2d: Sum(rhs),rhsMax =  -1.21015419907167E-11  1.29381748699668E-01
 cg2d: Sum(rhs),rhsMax =  -1.22082344233831E-11  1.28569109473789E-01
 cg2d: Sum(rhs),rhsMax =  -1.23550059072386E-11  1.27465104848343E-01
 cg2d: Sum(rhs),rhsMax =  -1.25217614055373E-11  1.26064673494016E-01
 cg2d: Sum(rhs),rhsMax =  -1.26632038188745E-11  1.24387192535502E-01
 cg2d: Sum(rhs),rhsMax =  -1.29326549469511E-11  1.22431318963562E-01
 cg2d: Sum(rhs),rhsMax =  -1.32198696434216E-11  1.20194049875538E-01
 cg2d: Sum(rhs),rhsMax =  -1.35674804724317E-11  1.17672314652403E-01
 cg2d: Sum(rhs),rhsMax =  -1.39336320259531E-11  1.14895667394735E-01
 cg2d: Sum(rhs),rhsMax =  -1.43246525752261E-11  1.11858573584486E-01
 cg2d: Sum(rhs),rhsMax =  -1.47484247037255E-11  1.08590322842724E-01
 cg2d: Sum(rhs),rhsMax =  -1.51996193409332E-11  1.05128179765403E-01
 cg2d: Sum(rhs),rhsMax =  -1.55828683290338E-11  1.02469325568289E-01
 cg2d: Sum(rhs),rhsMax =  -1.54901647064776E-11  1.02692565249489E-01
 cg2d: Sum(rhs),rhsMax =  -1.54080082026553E-11  1.02934119856142E-01
 cg2d: Sum(rhs),rhsMax =  -1.53366208621719E-11  1.03184312168248E-01
 cg2d: Sum(rhs),rhsMax =  -1.52916568296746E-11  1.03426453758369E-01
 cg2d: Sum(rhs),rhsMax =  -1.52479140425044E-11  1.03674190619349E-01
 cg2d: Sum(rhs),rhsMax =  -1.52374779460729E-11  1.03931261911541E-01
(PID.TID 0000.0001)      cg2d_init_res =   1.11963193396485E-01
(PID.TID 0000.0001)      cg2d_iters(min,last) =      -1      29
(PID.TID 0000.0001)      cg2d_last_res =   9.81207238877298E-14
(PID.TID 0000.0001) // =======================================================
(PID.TID 0000.0001) // Begin MONITOR dynamic field statistics
(PID.TID 0000.0001) // =======================================================
(PID.TID 0000.0001) %MON time_tsnumber                =                  7200
(PID.TID 0000.0001) %MON time_secondsf                =   1.0800000000000E+05
(PID.TID 0000.0001) %MON dynstat_eta_max              =   8.5385628170860E-03
(PID.TID 0000.0001) %MON dynstat_eta_min              =  -1.3960206637311E-02
(PID.TID 0000.0001) %MON dynstat_eta_mean             =   1.8279188849717E-15
(PID.TID 0000.0001) %MON dynstat_eta_sd               =   4.6089723844906E-03
(PID.TID 0000.0001) %MON dynstat_eta_del2             =   1.3755170947321E-04
(PID.TID 0000.0001) %MON dynstat_uvel_max             =   1.2572658173789E+00
(PID.TID 0000.0001) %MON dynstat_uvel_min             =  -5.3722473356718E-01
(PID.TID 0000.0001) %MON dynstat_uvel_mean            =  -9.6100330667423E-05
(PID.TID 0000.0001) %MON dynstat_uvel_sd              =   1.6400200281582E-01
(PID.TID 0000.0001) %MON dynstat_uvel_del2            =   6.8693484558467E-04
(PID.TID 0000.0001) %MON dynstat_vvel_max             =   0.0000000000000E+00
(PID.TID 0000.0001) %MON dynstat_vvel_min             =   0.0000000000000E+00
(PID.TID 0000.0001) %MON dynstat_vvel_mean            =   0.0000000000000E+00
(PID.TID 0000.0001) %MON dynstat_vvel_sd              =   0.0000000000000E+00
(PID.TID 0000.0001) %MON dynstat_vvel_del2            =   0.0000000000000E+00
(PID.TID 0000.0001) %MON dynstat_wvel_max             =   3.5923565051259E-02
(PID.TID 0000.0001) %MON dynstat_wvel_min             =  -2.9255142567684E-02
(PID.TID 0000.0001) %MON dynstat_wvel_mean            =  -1.5359943227343E-19
(PID.TID 0000.0001) %MON dynstat_wvel_sd              =   3.6928669160644E-03
(PID.TID 0000.0001) %MON dynstat_wvel_del2            =   7.6132203872204E-05
(PID.TID 0000.0001) %MON dynstat_theta_max            =   1.5000000000013E+01
(PID.TID 0000.0001) %MON dynstat_theta_min            =   9.9999999999918E+00
(PID.TID 0000.0001) %MON dynstat_theta_mean           =   1.3054014580876E+01
(PID.TID 0000.0001) %MON dynstat_theta_sd             =   2.3058850969682E+00
(PID.TID 0000.0001) %MON dynstat_theta_del2           =   1.7194421357176E-03
(PID.TID 0000.0001) %MON dynstat_salt_max             =   3.5000000000000E+01
(PID.TID 0000.0001) %MON dynstat_salt_min             =   3.5000000000000E+01
(PID.TID 0000.0001) %MON dynstat_salt_mean            =   3.5000000000000E+01
(PID.TID 0000.0001) %MON dynstat_salt_sd              =   7.1054273576010E-15
(PID.TID 0000.0001) %MON dynstat_salt_del2            =   0.0000000000000E+00
(PID.TID 0000.0001) %MON dynstat_sst_max              =   1.5000000000013E+01
(PID.TID 0000.0001) %MON dynstat_sst_min              =   1.4987211171236E+01
(PID.TID 0000.0001) %MON dynstat_sst_mean             =   1.4999460128733E+01
(PID.TID 0000.0001) %MON dynstat_sst_sd               =   1.8908791007472E-03
(PID.TID 0000.0001) %MON dynstat_sst_del2             =   5.3131754676000E-05
(PID.TID 0000.0001) %MON dynstat_sss_max              =   3.5000000000000E+01
(PID.TID 0000.0001) %MON dynstat_sss_min              =   3.5000000000000E+01
(PID.TID 0000.0001) %MON dynstat_sss_mean             =   3.5000000000000E+01
(PID.TID 0000.0001) %MON dynstat_sss_sd               =   0.0000000000000E+00
(PID.TID 0000.0001) %MON dynstat_sss_del2             =   0.0000000000000E+00
(PID.TID 0000.0001) %MON forcing_qnet_max             =   0.0000000000000E+00
(PID.TID 0000.0001) %MON forcing_qnet_min             =   0.0000000000000E+00
(PID.TID 0000.0001) %MON forcing_qnet_mean            =   0.0000000000000E+00
(PID.TID 0000.0001) %MON forcing_qnet_sd              =   0.0000000000000E+00
(PID.TID 0000.0001) %MON forcing_qnet_del2            =   0.0000000000000E+00
(PID.TID 0000.0001) %MON forcing_qsw_max              =   0.0000000000000E+00
(PID.TID 0000.0001) %MON forcing_qsw_min              =   0.0000000000000E+00
(PID.TID 0000.0001) %MON forcing_qsw_mean             =   0.0000000000000E+00
(PID.TID 0000.0001) %MON forcing_qsw_sd               =   0.0000000000000E+00
(PID.TID 0000.0001) %MON forcing_qsw_del2             =   0.0000000000000E+00
(PID.TID 0000.0001) %MON forcing_empmr_max            =   0.0000000000000E+00
(PID.TID 0000.0001) %MON forcing_empmr_min            =   0.0000000000000E+00
(PID.TID 0000.0001) %MON forcing_empmr_mean           =   0.0000000000000E+00
(PID.TID 0000.0001) %MON forcing_empmr_sd             =   0.0000000000000E+00
(PID.TID 0000.0001) %MON forcing_empmr_del2           =   0.0000000000000E+00
(PID.TID 0000.0001) %MON forcing_fu_max               =   0.0000000000000E+00
(PID.TID 0000.0001) %MON forcing_fu_min               =   0.0000000000000E+00
(PID.TID 0000.0001) %MON forcing_fu_mean              =   0.0000000000000E+00
(PID.TID 0000.0001) %MON forcing_fu_sd                =   0.0000000000000E+00
(PID.TID 0000.0001) %MON forcing_fu_del2              =   0.0000000000000E+00
(PID.TID 0000.0001) %MON forcing_fv_max               =   0.0000000000000E+00
(PID.TID 0000.0001) %MON forcing_fv_min               =   0.0000000000000E+00
(PID.TID 0000.0001) %MON forcing_fv_mean              =   0.0000000000000E+00
(PID.TID 0000.0001) %MON forcing_fv_sd                =   0.0000000000000E+00
(PID.TID 0000.0001) %MON forcing_fv_del2              =   0.0000000000000E+00
(PID.TID 0000.0001) %MON advcfl_uvel_max              =   6.8243787942882E-02
(PID.TID 0000.0001) %MON advcfl_vvel_max              =   0.0000000000000E+00
(PID.TID 0000.0001) %MON advcfl_wvel_max              =   3.8442838476405E-01
(PID.TID 0000.0001) %MON advcfl_W_hf_max              =   3.8767444487098E-01
(PID.TID 0000.0001) %MON pe_b_mean                    =   5.9633394037635E-07
(PID.TID 0000.0001) %MON ke_max                       =   5.5110754527962E-01
(PID.TID 0000.0001) %MON ke_mean                      =   1.3597198246857E-02
(PID.TID 0000.0001) %MON ke_vol                       =   8.5336562999261E+10
(PID.TID 0000.0001) %MON vort_r_min                   =   0.0000000000000E+00
(PID.TID 0000.0001) %MON vort_r_max                   =   0.0000000000000E+00
(PID.TID 0000.0001) %MON vort_a_mean                  =   0.0000000000000E+00
(PID.TID 0000.0001) %MON vort_a_sd                    =   0.0000000000000E+00
(PID.TID 0000.0001) %MON vort_p_mean                  =   0.0000000000000E+00
(PID.TID 0000.0001) %MON vort_p_sd                    =   0.0000000000000E+00
(PID.TID 0000.0001) %MON surfExpan_theta_mean         =  -2.6086754146953E-10
(PID.TID 0000.0001) %MON surfExpan_salt_mean          =  -3.7335927564894E-18
(PID.TID 0000.0001) // =======================================================
(PID.TID 0000.0001) // End MONITOR dynamic field statistics
(PID.TID 0000.0001) // =======================================================
(PID.TID 0000.0001) // =======================================================
(PID.TID 0000.0001) // Begin OBCS MONITOR field statistics
(PID.TID 0000.0001) // =======================================================
(PID.TID 0000.0001) %MON obc_E_uVel_max               =   0.0000000000000E+00
(PID.TID 0000.0001) %MON obc_E_uVel_min               =   0.0000000000000E+00
(PID.TID 0000.0001) %MON obc_E_uVel_mean              =   0.0000000000000E+00
(PID.TID 0000.0001) %MON obc_E_uVel_sd                =   0.0000000000000E+00
(PID.TID 0000.0001) %MON obc_E_uVel_Int               =   0.0000000000000E+00
(PID.TID 0000.0001) %MON obc_W_uVel_max               =   0.0000000000000E+00
(PID.TID 0000.0001) %MON obc_W_uVel_min               =   0.0000000000000E+00
(PID.TID 0000.0001) %MON obc_W_uVel_mean              =   0.0000000000000E+00
(PID.TID 0000.0001) %MON obc_W_uVel_sd                =   0.0000000000000E+00
(PID.TID 0000.0001) %MON obc_W_uVel_Int               =   0.0000000000000E+00
(PID.TID 0000.0001) // =======================================================
(PID.TID 0000.0001) // End OBCS MONITOR field statistics
(PID.TID 0000.0001) // =======================================================
(PID.TID 0000.0001) %CHECKPOINT      7200 0000007200
(PID.TID 0000.0001)   Seconds in section "ALL                    [THE_MODEL_MAIN]":
(PID.TID 0000.0001)           User time:   272.36000000000001
(PID.TID 0000.0001)         System time:  0.31000000000000000
(PID.TID 0000.0001)     Wall clock time:   272.96627783775330
(PID.TID 0000.0001)          No. starts:           1
(PID.TID 0000.0001)           No. stops:           1
(PID.TID 0000.0001)   Seconds in section "INITIALISE_FIXED       [THE_MODEL_MAIN]":
(PID.TID 0000.0001)           User time:   2.0000000000000000E-002
(PID.TID 0000.0001)         System time:   0.0000000000000000
(PID.TID 0000.0001)     Wall clock time:   3.6164999008178711E-002
(PID.TID 0000.0001)          No. starts:           1
(PID.TID 0000.0001)           No. stops:           1
(PID.TID 0000.0001)   Seconds in section "THE_MAIN_LOOP          [THE_MODEL_MAIN]":
(PID.TID 0000.0001)           User time:   272.34000000000003
(PID.TID 0000.0001)         System time:  0.31000000000000000
(PID.TID 0000.0001)     Wall clock time:   272.93008112907410
(PID.TID 0000.0001)          No. starts:           1
(PID.TID 0000.0001)           No. stops:           1
(PID.TID 0000.0001)   Seconds in section "INITIALISE_VARIA    [THE_MAIN_LOOP]":
(PID.TID 0000.0001)           User time:   2.0000000000000000E-002
(PID.TID 0000.0001)         System time:   1.0000000000000000E-002
(PID.TID 0000.0001)     Wall clock time:   1.5770912170410156E-002
(PID.TID 0000.0001)          No. starts:           1
(PID.TID 0000.0001)           No. stops:           1
(PID.TID 0000.0001)   Seconds in section "MAIN LOOP           [THE_MAIN_LOOP]":
(PID.TID 0000.0001)           User time:   272.31999999999999
(PID.TID 0000.0001)         System time:  0.29999999999999999
(PID.TID 0000.0001)     Wall clock time:   272.91427707672119
(PID.TID 0000.0001)          No. starts:           1
(PID.TID 0000.0001)           No. stops:           1
(PID.TID 0000.0001)   Seconds in section "MAIN_DO_LOOP        [THE_MAIN_LOOP]":
(PID.TID 0000.0001)           User time:   272.20999999998668
(PID.TID 0000.0001)         System time:  0.30000000000000032
(PID.TID 0000.0001)     Wall clock time:   272.84944796562195
(PID.TID 0000.0001)          No. starts:        7200
(PID.TID 0000.0001)           No. stops:        7200
(PID.TID 0000.0001)   Seconds in section "FORWARD_STEP        [MAIN_DO_LOOP]":
(PID.TID 0000.0001)           User time:   272.09999999998655
(PID.TID 0000.0001)         System time:  0.30000000000000032
(PID.TID 0000.0001)     Wall clock time:   272.71637964248657
(PID.TID 0000.0001)          No. starts:        7200
(PID.TID 0000.0001)           No. stops:        7200
(PID.TID 0000.0001)   Seconds in section "LOAD_FIELDS_DRIVER  [FORWARD_STEP]":
(PID.TID 0000.0001)           User time:  0.17999999999983629
(PID.TID 0000.0001)         System time:   0.0000000000000000
(PID.TID 0000.0001)     Wall clock time:  0.19857931137084961
(PID.TID 0000.0001)          No. starts:        7200
(PID.TID 0000.0001)           No. stops:        7200
(PID.TID 0000.0001)   Seconds in section "EXTERNAL_FLDS_LOAD [LOAD_FLDS_DRIVER]":
(PID.TID 0000.0001)           User time:   9.0000000000031832E-002
(PID.TID 0000.0001)         System time:   0.0000000000000000
(PID.TID 0000.0001)     Wall clock time:   6.6332340240478516E-002
(PID.TID 0000.0001)          No. starts:        7200
(PID.TID 0000.0001)           No. stops:        7200
(PID.TID 0000.0001)   Seconds in section "DO_ATMOSPHERIC_PHYS [FORWARD_STEP]":
(PID.TID 0000.0001)           User time:   7.9999999999927240E-002
(PID.TID 0000.0001)         System time:   0.0000000000000000
(PID.TID 0000.0001)     Wall clock time:   6.5818548202514648E-002
(PID.TID 0000.0001)          No. starts:        7200
(PID.TID 0000.0001)           No. stops:        7200
(PID.TID 0000.0001)   Seconds in section "DO_OCEANIC_PHYS     [FORWARD_STEP]":
(PID.TID 0000.0001)           User time:   95.329999999994243
(PID.TID 0000.0001)         System time:  0.10000000000000003
(PID.TID 0000.0001)     Wall clock time:   95.238262414932251
(PID.TID 0000.0001)          No. starts:        7200
(PID.TID 0000.0001)           No. stops:        7200
(PID.TID 0000.0001)   Seconds in section "DYNAMICS            [FORWARD_STEP]":
(PID.TID 0000.0001)           User time:   85.859999999995296
(PID.TID 0000.0001)         System time:   3.0000000000000027E-002
(PID.TID 0000.0001)     Wall clock time:   85.664617538452148
(PID.TID 0000.0001)          No. starts:        7200
(PID.TID 0000.0001)           No. stops:        7200
(PID.TID 0000.0001)   Seconds in section "SOLVE_FOR_PRESSURE  [FORWARD_STEP]":
(PID.TID 0000.0001)           User time:   2.6899999999986335
(PID.TID 0000.0001)         System time:   1.0000000000000009E-002
(PID.TID 0000.0001)     Wall clock time:   2.9547815322875977
(PID.TID 0000.0001)          No. starts:        7200
(PID.TID 0000.0001)           No. stops:        7200
(PID.TID 0000.0001)   Seconds in section "MOM_CORRECTION_STEP [FORWARD_STEP]":
(PID.TID 0000.0001)           User time:   3.2199999999987767
(PID.TID 0000.0001)         System time:   0.0000000000000000
(PID.TID 0000.0001)     Wall clock time:   3.0737485885620117
(PID.TID 0000.0001)          No. starts:        7200
(PID.TID 0000.0001)           No. stops:        7200
(PID.TID 0000.0001)   Seconds in section "INTEGR_CONTINUITY   [FORWARD_STEP]":
(PID.TID 0000.0001)           User time:   1.5299999999996885
(PID.TID 0000.0001)         System time:   1.0000000000000009E-002
(PID.TID 0000.0001)     Wall clock time:   1.5264625549316406
(PID.TID 0000.0001)          No. starts:        7200
(PID.TID 0000.0001)           No. stops:        7200
(PID.TID 0000.0001)   Seconds in section "BLOCKING_EXCHANGES  [FORWARD_STEP]":
(PID.TID 0000.0001)           User time:   7.3699999999931265
(PID.TID 0000.0001)         System time:   2.0000000000000018E-002
(PID.TID 0000.0001)     Wall clock time:   8.0796699523925781
(PID.TID 0000.0001)          No. starts:       14400
(PID.TID 0000.0001)           No. stops:       14400
(PID.TID 0000.0001)   Seconds in section "THERMODYNAMICS      [FORWARD_STEP]":
(PID.TID 0000.0001)           User time:   74.299999999991940
(PID.TID 0000.0001)         System time:  0.11000000000000010
(PID.TID 0000.0001)     Wall clock time:   74.144602537155151
(PID.TID 0000.0001)          No. starts:        7200
(PID.TID 0000.0001)           No. stops:        7200
(PID.TID 0000.0001)   Seconds in section "TRC_CORRECTION_STEP [FORWARD_STEP]":
(PID.TID 0000.0001)           User time:   6.9999999999936335E-002
(PID.TID 0000.0001)         System time:   0.0000000000000000
(PID.TID 0000.0001)     Wall clock time:   6.7100763320922852E-002
(PID.TID 0000.0001)          No. starts:        7200
(PID.TID 0000.0001)           No. stops:        7200
(PID.TID 0000.0001)   Seconds in section "MONITOR             [FORWARD_STEP]":
(PID.TID 0000.0001)           User time:  0.14999999999986358
(PID.TID 0000.0001)         System time:   0.0000000000000000
(PID.TID 0000.0001)     Wall clock time:  0.11013078689575195
(PID.TID 0000.0001)          No. starts:        7200
(PID.TID 0000.0001)           No. stops:        7200
(PID.TID 0000.0001)   Seconds in section "DO_THE_MODEL_IO     [FORWARD_STEP]":
(PID.TID 0000.0001)           User time:  0.17999999999989313
(PID.TID 0000.0001)         System time:   1.0000000000000009E-002
(PID.TID 0000.0001)     Wall clock time:  0.45536994934082031
(PID.TID 0000.0001)          No. starts:        7200
(PID.TID 0000.0001)           No. stops:        7200
(PID.TID 0000.0001)   Seconds in section "DO_WRITE_PICKUP     [FORWARD_STEP]":
(PID.TID 0000.0001)           User time:   5.9999999999945430E-002
(PID.TID 0000.0001)         System time:   1.0000000000000009E-002
(PID.TID 0000.0001)     Wall clock time:  0.13138151168823242
(PID.TID 0000.0001)          No. starts:        7200
(PID.TID 0000.0001)           No. stops:        7200
(PID.TID 0000.0001) // ======================================================
(PID.TID 0000.0001) // Tile <-> Tile communication statistics
(PID.TID 0000.0001) // ======================================================
(PID.TID 0000.0001) // o Tile number: 000001
(PID.TID 0000.0001) //         No. X exchanges =              0
(PID.TID 0000.0001) //            Max. X spins =              0
(PID.TID 0000.0001) //            Min. X spins =     1000000000
(PID.TID 0000.0001) //          Total. X spins =              0
(PID.TID 0000.0001) //            Avg. X spins =       0.00E+00
(PID.TID 0000.0001) //         No. Y exchanges =              0
(PID.TID 0000.0001) //            Max. Y spins =              0
(PID.TID 0000.0001) //            Min. Y spins =     1000000000
(PID.TID 0000.0001) //          Total. Y spins =              0
(PID.TID 0000.0001) //            Avg. Y spins =       0.00E+00
(PID.TID 0000.0001) // o Thread number: 000001
(PID.TID 0000.0001) //            No. barriers =        1329750
(PID.TID 0000.0001) //      Max. barrier spins =              1
(PID.TID 0000.0001) //      Min. barrier spins =              1
(PID.TID 0000.0001) //     Total barrier spins =        1329750
(PID.TID 0000.0001) //      Avg. barrier spins =       1.00E+00
PROGRAM MAIN: Execution ended Normally
