(PID.TID 0000.0001) 
(PID.TID 0000.0001) // ======================================================
(PID.TID 0000.0001) //                      MITgcm UV
(PID.TID 0000.0001) //                      =========
(PID.TID 0000.0001) // ======================================================
(PID.TID 0000.0001) // execution environment starting up...
(PID.TID 0000.0001) 
(PID.TID 0000.0001) // MITgcmUV version:  checkpoint65d
(PID.TID 0000.0001) // Build user:        hugke729
(PID.TID 0000.0001) // Build host:        hugke729
(PID.TID 0000.0001) // Build date:        Mon Apr 10 14:21:54 PDT 2017
(PID.TID 0000.0001) 
(PID.TID 0000.0001) // =======================================================
(PID.TID 0000.0001) // Execution Environment parameter file "eedata"
(PID.TID 0000.0001) // =======================================================
(PID.TID 0000.0001) ># Example "eedata" file
(PID.TID 0000.0001) ># Lines beginning "#" are comments
(PID.TID 0000.0001) ># nTx - No. threads per process in X
(PID.TID 0000.0001) ># nTy - No. threads per process in Y
(PID.TID 0000.0001) > &EEPARMS
(PID.TID 0000.0001) > /
(PID.TID 0000.0001) ># Note: Some systems use & as the
(PID.TID 0000.0001) ># namelist terminator. Other systems
(PID.TID 0000.0001) ># use a / character (as shown here).
(PID.TID 0000.0001) 
(PID.TID 0000.0001) // =======================================================
(PID.TID 0000.0001) // Computational Grid Specification ( see files "SIZE.h" )
(PID.TID 0000.0001) //                                  ( and "eedata"       )
(PID.TID 0000.0001) // =======================================================
(PID.TID 0000.0001)      nPx =    1 ; /* No. processes in X */
(PID.TID 0000.0001)      nPy =    1 ; /* No. processes in Y */
(PID.TID 0000.0001)      nSx =    1 ; /* No. tiles in X per process */
(PID.TID 0000.0001)      nSy =    1 ; /* No. tiles in Y per process */
(PID.TID 0000.0001)      sNx =  200 ; /* Tile size in X */
(PID.TID 0000.0001)      sNy =    1 ; /* Tile size in Y */
(PID.TID 0000.0001)      OLx =    2 ; /* Tile overlap distance in X */
(PID.TID 0000.0001)      OLy =    2 ; /* Tile overlap distance in Y */
(PID.TID 0000.0001)      nTx =    1 ; /* No. threads in X per process */
(PID.TID 0000.0001)      nTy =    1 ; /* No. threads in Y per process */
(PID.TID 0000.0001)       Nr =  100 ; /* No. levels in the vertical   */
(PID.TID 0000.0001)       Nx =  200 ; /* Total domain size in X ( = nPx*nSx*sNx ) */
(PID.TID 0000.0001)       Ny =    1 ; /* Total domain size in Y ( = nPy*nSy*sNy ) */
(PID.TID 0000.0001)   nTiles =    1 ; /* Total no. tiles per process ( = nSx*nSy ) */
(PID.TID 0000.0001)   nProcs =    1 ; /* Total no. processes ( = nPx*nPy ) */
(PID.TID 0000.0001) nThreads =    1 ; /* Total no. threads per process ( = nTx*nTy ) */
(PID.TID 0000.0001) usingMPI =    F ; /* Flag used to control whether MPI is in use */
(PID.TID 0000.0001)                   /*  note: To execute a program with MPI calls */
(PID.TID 0000.0001)                   /*  it must be launched appropriately e.g     */
(PID.TID 0000.0001)                   /*  "mpirun -np 64 ......"                    */
(PID.TID 0000.0001) useCoupler=    F ;/* Flag used to control communications with   */
(PID.TID 0000.0001)                   /*  other model components, through a coupler */
(PID.TID 0000.0001) debugMode =    F ; /* print debug msg. (sequence of S/R calls)  */
(PID.TID 0000.0001) printMapIncludesZeros=    F ; /* print zeros in Std.Output maps */
(PID.TID 0000.0001) maxLengthPrt1D=   65 /* maxLength of 1D array printed to StdOut */
(PID.TID 0000.0001) 
(PID.TID 0000.0001) // ======================================================
(PID.TID 0000.0001) // Mapping of tiles to threads
(PID.TID 0000.0001) // ======================================================
(PID.TID 0000.0001) // -o- Thread   1, tiles (   1:   1,   1:   1)
(PID.TID 0000.0001) 
(PID.TID 0000.0001) // ======================================================
(PID.TID 0000.0001) // Tile <-> Tile connectvity table
(PID.TID 0000.0001) // ======================================================
(PID.TID 0000.0001) // Tile number: 000001 (process no. = 000000)
(PID.TID 0000.0001) //        WEST: Tile = 000001, Process = 000000, Comm = put
(PID.TID 0000.0001) //                bi = 000001, bj = 000001
(PID.TID 0000.0001) //        EAST: Tile = 000001, Process = 000000, Comm = put
(PID.TID 0000.0001) //                bi = 000001, bj = 000001
(PID.TID 0000.0001) //       SOUTH: Tile = 000001, Process = 000000, Comm = put
(PID.TID 0000.0001) //                bi = 000001, bj = 000001
(PID.TID 0000.0001) //       NORTH: Tile = 000001, Process = 000000, Comm = put
(PID.TID 0000.0001) //                bi = 000001, bj = 000001
(PID.TID 0000.0001) 
(PID.TID 0000.0001)  INI_PARMS: opening model parameter file "data"
(PID.TID 0000.0001)  OPEN_COPY_DATA_FILE: opening file data
(PID.TID 0000.0001) // =======================================================
(PID.TID 0000.0001) // Parameter file "data"
(PID.TID 0000.0001) // =======================================================
(PID.TID 0000.0001) ># ====================
(PID.TID 0000.0001) ># | Model parameters |
(PID.TID 0000.0001) ># ====================
(PID.TID 0000.0001) >#
(PID.TID 0000.0001) ># See src/ini_parms.F for possible parameters.
(PID.TID 0000.0001) >#
(PID.TID 0000.0001) ># Continuous equation parameters
(PID.TID 0000.0001) > &PARM01
(PID.TID 0000.0001) > tRefFile='Tref.bin'
(PID.TID 0000.0001) > sRef= 25*35.,
(PID.TID 0000.0001) > viscAz=1.E-5,
(PID.TID 0000.0001) > viscAh=1.E-4,
(PID.TID 0000.0001) > no_slip_sides=.FALSE.,
(PID.TID 0000.0001) > no_slip_bottom=.FALSE.,
(PID.TID 0000.0001) > viscA4=0.E12,
(PID.TID 0000.0001) > diffKhT=1.E-4,
(PID.TID 0000.0001) > diffKzT=1.E-5,
(PID.TID 0000.0001) > diffKhS=1.E3,
(PID.TID 0000.0001) > diffKzS=1.E-5,
(PID.TID 0000.0001) > f0=0.E-4,
(PID.TID 0000.0001) > beta=0.0E-11,
(PID.TID 0000.0001) > tAlpha=2.E-4,
(PID.TID 0000.0001) > sBeta =0.E-4,
(PID.TID 0000.0001) > gravity=9.81,
(PID.TID 0000.0001) > gBaro=9.81,
(PID.TID 0000.0001) > rigidLid=.FALSE.,
(PID.TID 0000.0001) > implicitFreeSurface=.TRUE.,
(PID.TID 0000.0001) > eosType='LINEAR',
(PID.TID 0000.0001) > nonHydrostatic=.FALSE.,
(PID.TID 0000.0001) > readBinaryPrec=64,
(PID.TID 0000.0001) > useSingleCpuIO=.TRUE.
(PID.TID 0000.0001) > writeBinaryPrec=64,
(PID.TID 0000.0001) > writeStatePrec=64,
(PID.TID 0000.0001) > saltStepping=.FALSE.,
(PID.TID 0000.0001) ># minimum cell fraction.  This reduces steppiness..
(PID.TID 0000.0001) >  hFacMin=0.1,
(PID.TID 0000.0001) >  exactConserv=.FALSE.,
(PID.TID 0000.0001) >  implicitDiffusion=.TRUE.
(PID.TID 0000.0001) >  implicitViscosity=.TRUE.
(PID.TID 0000.0001) ># Superbee on:
(PID.TID 0000.0001) > tempAdvScheme=77,
(PID.TID 0000.0001) > staggerTimeStep=.TRUE.,
(PID.TID 0000.0001) >/
(PID.TID 0000.0001) >
(PID.TID 0000.0001) ># Elliptic solver parameters
(PID.TID 0000.0001) > &PARM02
(PID.TID 0000.0001) > cg2dMaxIters=1000,
(PID.TID 0000.0001) > cg2dTargetResidual=1.E-13,
(PID.TID 0000.0001) > cg3dMaxIters=400,
(PID.TID 0000.0001) > cg3dTargetResidual=1.E-13,
(PID.TID 0000.0001) >/
(PID.TID 0000.0001) >
(PID.TID 0000.0001) ># Time stepping parameters
(PID.TID 0000.0001) > &PARM03
(PID.TID 0000.0001) > niter0=0,
(PID.TID 0000.0001) ># times are in s
(PID.TID 0000.0001) > startTime=0,
(PID.TID 0000.0001) > endTime=108000,
(PID.TID 0000.0001) > deltaT=15,
(PID.TID 0000.0001) > abEps=0.1,
(PID.TID 0000.0001) ># once per tide checkpoint...
(PID.TID 0000.0001) > pChkptFreq=21600,
(PID.TID 0000.0001) > chkptFreq=0.0,
(PID.TID 0000.0001) > dumpFreq=7200,
(PID.TID 0000.0001) > monitorFreq=7200,
(PID.TID 0000.0001) ># Forcing for boundary condition files
(PID.TID 0000.0001) > periodicExternalForcing=.FALSE.,
(PID.TID 0000.0001) >/
(PID.TID 0000.0001) >
(PID.TID 0000.0001) ># Gridding parameters
(PID.TID 0000.0001) > &PARM04
(PID.TID 0000.0001) > usingCartesianGrid=.TRUE.,
(PID.TID 0000.0001) > usingSphericalPolarGrid=.FALSE.,
(PID.TID 0000.0001) > delXfile='delXvar.bin',
(PID.TID 0000.0001) > delY=5.e3,
(PID.TID 0000.0001) > delRfile = 'delZvar.bin',
(PID.TID 0000.0001) >/
(PID.TID 0000.0001) >
(PID.TID 0000.0001) ># Input datasets
(PID.TID 0000.0001) > &PARM05
(PID.TID 0000.0001) > bathyFile='topo.bin',
(PID.TID 0000.0001) > hydrogThetaFile='T0.bin',
(PID.TID 0000.0001) > checkIniTemp=.FALSE.,
(PID.TID 0000.0001) > uVelInitFile='U0.bin',
(PID.TID 0000.0001) > /
(PID.TID 0000.0001) 
(PID.TID 0000.0001)  INI_PARMS ; starts to read PARM01
(PID.TID 0000.0001)  INI_PARMS ; read PARM01 : OK
(PID.TID 0000.0001)  INI_PARMS ; starts to read PARM02
(PID.TID 0000.0001)  INI_PARMS ; read PARM02 : OK
(PID.TID 0000.0001)  INI_PARMS ; starts to read PARM03
(PID.TID 0000.0001)  INI_PARMS ; read PARM03 : OK
(PID.TID 0000.0001)  INI_PARMS ; starts to read PARM04
(PID.TID 0000.0001)  INI_PARMS ; read PARM04 : OK
(PID.TID 0000.0001)  INI_PARMS ; starts to read PARM05
(PID.TID 0000.0001)  INI_PARMS ; read PARM05 : OK
(PID.TID 0000.0001)  INI_PARMS: finished reading file "data"
(PID.TID 0000.0001)  PACKAGES_BOOT: opening data.pkg
(PID.TID 0000.0001)  OPEN_COPY_DATA_FILE: opening file data.pkg
(PID.TID 0000.0001) // =======================================================
(PID.TID 0000.0001) // Parameter file "data.pkg"
(PID.TID 0000.0001) // =======================================================
(PID.TID 0000.0001) ># Packages
(PID.TID 0000.0001) > &PACKAGES
(PID.TID 0000.0001) > useOBCS=.TRUE.,
(PID.TID 0000.0001) > useKL10=.TRUE.,
(PID.TID 0000.0001) > useDIAGNOSTICS=.FALSE.,
(PID.TID 0000.0001) > useMNC=.FALSE.,
(PID.TID 0000.0001) > /
(PID.TID 0000.0001) 
(PID.TID 0000.0001)  PACKAGES_BOOT: finished reading data.pkg
(PID.TID 0000.0001)  PACKAGES_BOOT: On/Off package Summary
 --------  pkgs with a standard "usePKG" On/Off switch in "data.pkg":  --------
 pkg/obcs                 compiled   and   used ( useOBCS                  = T )
 pkg/kl10                 compiled   and   used ( useKL10                  = T )
 -------- pkgs without standard "usePKG" On/Off switch in "data.pkg":  --------
 pkg/generic_advdiff      compiled   and   used ( useGAD                   = T )
 pkg/mom_common           compiled   and   used ( momStepping              = T )
 pkg/mom_vecinv           compiled but not used ( +vectorInvariantMomentum = F )
 pkg/mom_fluxform         compiled   and   used ( & not vectorInvariantMom = T )
 pkg/monitor              compiled   and   used ( monitorFreq > 0.         = T )
 pkg/debug                compiled but not used ( debugMode                = F )
 pkg/rw                   compiled   and   used
 pkg/mdsio                compiled   and   used
(PID.TID 0000.0001)  PACKAGES_BOOT: End of package Summary
(PID.TID 0000.0001) 
(PID.TID 0000.0001)  OBCS_READPARMS: opening data.obcs
(PID.TID 0000.0001)  OPEN_COPY_DATA_FILE: opening file data.obcs
(PID.TID 0000.0001) // =======================================================
(PID.TID 0000.0001) // Parameter file "data.obcs"
(PID.TID 0000.0001) // =======================================================
(PID.TID 0000.0001) ># Open-boundaries
(PID.TID 0000.0001) > &OBCS_PARM01
(PID.TID 0000.0001) > OB_Iwest=1*1,
(PID.TID 0000.0001) > OB_Ieast=1*-1,
(PID.TID 0000.0001) > OB_Jnorth=100*0,
(PID.TID 0000.0001) > OB_Jsouth=100*0,
(PID.TID 0000.0001) > useOBCSsponge=.TRUE.,
(PID.TID 0000.0001) > OBEuFile='U_in.bin',
(PID.TID 0000.0001) > OBWuFile='U_in.bin',
(PID.TID 0000.0001) > OBEtFile='TE.bin',
(PID.TID 0000.0001) > OBWtFile='TW.bin',
(PID.TID 0000.0001) > useOBCSprescribe=.TRUE.,
(PID.TID 0000.0001) > /
(PID.TID 0000.0001) >
(PID.TID 0000.0001) ># Orlanski parameters
(PID.TID 0000.0001) > &OBCS_PARM02
(PID.TID 0000.0001) >/
(PID.TID 0000.0001) >
(PID.TID 0000.0001) ># Sponge layer parameters
(PID.TID 0000.0001) > &OBCS_PARM03
(PID.TID 0000.0001) > Urelaxobcsinner=1000.,
(PID.TID 0000.0001) > Urelaxobcsbound=100.,
(PID.TID 0000.0001) > Vrelaxobcsinner=1000.0,
(PID.TID 0000.0001) > Vrelaxobcsbound=100.0,
(PID.TID 0000.0001) > spongeThickness=10,
(PID.TID 0000.0001) > /
(PID.TID 0000.0001) 
(PID.TID 0000.0001)  OBCS_READPARMS: finished reading data.obcs
(PID.TID 0000.0001)  OB_indexUnset = /* unset OB index value (i.e. no OB) */
(PID.TID 0000.0001)                       0
(PID.TID 0000.0001)     ;
(PID.TID 0000.0001)  Northern OB global indices : OB_Jnorth =
(PID.TID 0000.0001)   200 @        0                            /* I =  1:200 */
(PID.TID 0000.0001)  Southern OB global indices : OB_Jsouth =
(PID.TID 0000.0001)   200 @        0                            /* I =  1:200 */
(PID.TID 0000.0001)  Eastern  OB global indices : OB_Ieast =
(PID.TID 0000.0001)                     200                     /* J =  1 */
(PID.TID 0000.0001)  Western  OB global indices : OB_Iwest =
(PID.TID 0000.0001)                       1                     /* J =  1 */
(PID.TID 0000.0001) 
(PID.TID 0000.0001)  KL10_READPARMS: opening data.kl10
(PID.TID 0000.0001)  OPEN_COPY_DATA_FILE: opening file data.kl10
(PID.TID 0000.0001) // =======================================================
(PID.TID 0000.0001) // Parameter file "data.kl10"
(PID.TID 0000.0001) // =======================================================
(PID.TID 0000.0001) ># =====================================================================
(PID.TID 0000.0001) ># | Parameters for Klymak and Legg (2010) vertical mixing scheme      |
(PID.TID 0000.0001) ># =====================================================================
(PID.TID 0000.0001) > &KL10_PARM01
(PID.TID 0000.0001) > KLwriteState=.TRUE.,
(PID.TID 0000.0001) >/
(PID.TID 0000.0001) 
(PID.TID 0000.0001)  KL10_READPARMS: finished reading data.kl10
(PID.TID 0000.0001) SET_PARMS: done
(PID.TID 0000.0001)  MDS_READVEC_LOC: open file: delXvar.bin
(PID.TID 0000.0001) S/R LOAD_GRID_SPACING: delX loaded from file: delXvar.bin
(PID.TID 0000.0001)  MDS_READVEC_LOC: open file: delZvar.bin
(PID.TID 0000.0001) S/R LOAD_GRID_SPACING: delR loaded from file: delZvar.bin
(PID.TID 0000.0001) Enter INI_VERTICAL_GRID: setInterFDr=    T ; setCenterDr=    F
(PID.TID 0000.0001) %MON XC_max                       =   9.9471849328752E+04
(PID.TID 0000.0001) %MON XC_min                       =   6.3164731900833E+02
(PID.TID 0000.0001) %MON XC_mean                      =   5.2906107272275E+04
(PID.TID 0000.0001) %MON XC_sd                        =   2.2139310392762E+04
(PID.TID 0000.0001) %MON XG_max                       =   9.8943698657505E+04
(PID.TID 0000.0001) %MON XG_min                       =   0.0000000000000E+00
(PID.TID 0000.0001) %MON XG_mean                      =   5.2656107272275E+04
(PID.TID 0000.0001) %MON XG_sd                        =   2.2172561685063E+04
(PID.TID 0000.0001) %MON DXC_max                      =   1.2503953509116E+03
(PID.TID 0000.0001) %MON DXC_min                      =   2.0000000000000E+02
(PID.TID 0000.0001) %MON DXC_mean                     =   5.0000000000000E+02
(PID.TID 0000.0001) %MON DXC_sd                       =   2.8531736750525E+02
(PID.TID 0000.0001) %MON DXF_max                      =   1.2632946380167E+03
(PID.TID 0000.0001) %MON DXF_min                      =   2.0000000000000E+02
(PID.TID 0000.0001) %MON DXF_mean                     =   5.0000000000000E+02
(PID.TID 0000.0001) %MON DXF_sd                       =   2.8547066202794E+02
(PID.TID 0000.0001) %MON DXG_max                      =   1.2632946380167E+03
(PID.TID 0000.0001) %MON DXG_min                      =   2.0000000000000E+02
(PID.TID 0000.0001) %MON DXG_mean                     =   5.0000000000000E+02
(PID.TID 0000.0001) %MON DXG_sd                       =   2.8547066202794E+02
(PID.TID 0000.0001) %MON DXV_max                      =   1.2503953509116E+03
(PID.TID 0000.0001) %MON DXV_min                      =   2.0000000000000E+02
(PID.TID 0000.0001) %MON DXV_mean                     =   5.0000000000000E+02
(PID.TID 0000.0001) %MON DXV_sd                       =   2.8531736750525E+02
(PID.TID 0000.0001) %MON YC_max                       =   2.5000000000000E+03
(PID.TID 0000.0001) %MON YC_min                       =   2.5000000000000E+03
(PID.TID 0000.0001) %MON YC_mean                      =   2.5000000000000E+03
(PID.TID 0000.0001) %MON YC_sd                        =   0.0000000000000E+00
(PID.TID 0000.0001) %MON YG_max                       =   0.0000000000000E+00
(PID.TID 0000.0001) %MON YG_min                       =   0.0000000000000E+00
(PID.TID 0000.0001) %MON YG_mean                      =   0.0000000000000E+00
(PID.TID 0000.0001) %MON YG_sd                        =   0.0000000000000E+00
(PID.TID 0000.0001) %MON DYC_max                      =   5.0000000000000E+03
(PID.TID 0000.0001) %MON DYC_min                      =   5.0000000000000E+03
(PID.TID 0000.0001) %MON DYC_mean                     =   5.0000000000000E+03
(PID.TID 0000.0001) %MON DYC_sd                       =   0.0000000000000E+00
(PID.TID 0000.0001) %MON DYF_max                      =   5.0000000000000E+03
(PID.TID 0000.0001) %MON DYF_min                      =   5.0000000000000E+03
(PID.TID 0000.0001) %MON DYF_mean                     =   5.0000000000000E+03
(PID.TID 0000.0001) %MON DYF_sd                       =   0.0000000000000E+00
(PID.TID 0000.0001) %MON DYG_max                      =   5.0000000000000E+03
(PID.TID 0000.0001) %MON DYG_min                      =   5.0000000000000E+03
(PID.TID 0000.0001) %MON DYG_mean                     =   5.0000000000000E+03
(PID.TID 0000.0001) %MON DYG_sd                       =   0.0000000000000E+00
(PID.TID 0000.0001) %MON DYU_max                      =   5.0000000000000E+03
(PID.TID 0000.0001) %MON DYU_min                      =   5.0000000000000E+03
(PID.TID 0000.0001) %MON DYU_mean                     =   5.0000000000000E+03
(PID.TID 0000.0001) %MON DYU_sd                       =   0.0000000000000E+00
(PID.TID 0000.0001) %MON RA_max                       =   6.3164731900833E+06
(PID.TID 0000.0001) %MON RA_min                       =   1.0000000000000E+06
(PID.TID 0000.0001) %MON RA_mean                      =   2.5000000000000E+06
(PID.TID 0000.0001) %MON RA_sd                        =   1.4273533101397E+06
(PID.TID 0000.0001) %MON RAW_max                      =   6.2519767545581E+06
(PID.TID 0000.0001) %MON RAW_min                      =   1.0000000000000E+06
(PID.TID 0000.0001) %MON RAW_mean                     =   2.5000000000000E+06
(PID.TID 0000.0001) %MON RAW_sd                       =   1.4265868375263E+06
(PID.TID 0000.0001) %MON RAS_max                      =   6.3164731900833E+06
(PID.TID 0000.0001) %MON RAS_min                      =   1.0000000000000E+06
(PID.TID 0000.0001) %MON RAS_mean                     =   2.5000000000000E+06
(PID.TID 0000.0001) %MON RAS_sd                       =   1.4273533101397E+06
(PID.TID 0000.0001) %MON RAZ_max                      =   6.2519767545581E+06
(PID.TID 0000.0001) %MON RAZ_min                      =   1.0000000000000E+06
(PID.TID 0000.0001) %MON RAZ_mean                     =   2.5000000000000E+06
(PID.TID 0000.0001) %MON RAZ_sd                       =   1.4265868375263E+06
(PID.TID 0000.0001) %MON AngleCS_max                  =   1.0000000000000E+00
(PID.TID 0000.0001) %MON AngleCS_min                  =   1.0000000000000E+00
(PID.TID 0000.0001) %MON AngleCS_mean                 =   1.0000000000000E+00
(PID.TID 0000.0001) %MON AngleCS_sd                   =   0.0000000000000E+00
(PID.TID 0000.0001) %MON AngleSN_max                  =   0.0000000000000E+00
(PID.TID 0000.0001) %MON AngleSN_min                  =   0.0000000000000E+00
(PID.TID 0000.0001) %MON AngleSN_mean                 =   0.0000000000000E+00
(PID.TID 0000.0001) %MON AngleSN_sd                   =   0.0000000000000E+00
(PID.TID 0000.0001)  MDS_READVEC_LOC: open file: Tref.bin
(PID.TID 0000.0001) S/R LOAD_REF_FILES: tRef loaded from file: Tref.bin
(PID.TID 0000.0001)  MDS_READ_FIELD: opening global file: topo.bin
(PID.TID 0000.0001) // =======================================================
(PID.TID 0000.0001) // Field Model R_low (ini_masks_etc)
(PID.TID 0000.0001) // CMIN =         -1.999999999999999E+02
(PID.TID 0000.0001) // CMAX =         -1.001249219075419E+02
(PID.TID 0000.0001) // CINT =          3.699076966387332E+00
(PID.TID 0000.0001) // SYMBOLS (CMIN->CMAX): -abcdefghijklmnopqrstuvwxyz+
(PID.TID 0000.0001) //                  0.0: .
(PID.TID 0000.0001) // RANGE I (Lo:Hi:Step):(    -1:   202:     1)
(PID.TID 0000.0001) // RANGE J (Lo:Hi:Step):(     3:    -1:    -1)
(PID.TID 0000.0001) // RANGE K (Lo:Hi:Step):(   1:   1:   1)
(PID.TID 0000.0001) // =======================================================
(PID.TID 0000.0001) K =   1
(PID.TID 0000.0001) //                I=8       I=18      I=28      I=38      I=48      I=58      I=68      I=78      I=88      I=98      I=108     I=118     I=128     I=138     I=148     I=158     I=168     I=178     I=188     I=198
(PID.TID 0000.0001) // |--J--|101234567|901234567|901234567|901234567|901234567|901234567|901234567|901234567|901234567|901234567|901234567|901234567|901234567|901234567|901234567|901234567|901234567|901234567|901234567|901234567|9012
(PID.TID 0000.0001) //      3 --------------------------------------------------------------------------aaaabbccdefghiklnpqstvwxyz++++zyxwvtsqpnlkihgfedccbbaaaa--------------------------------------------------------------------------
(PID.TID 0000.0001) //      2 --------------------------------------------------------------------------aaaabbccdefghiklnpqstvwxyz++++zyxwvtsqpnlkihgfedccbbaaaa--------------------------------------------------------------------------
(PID.TID 0000.0001) //      1 --------------------------------------------------------------------------aaaabbccdefghiklnpqstvwxyz++++zyxwvtsqpnlkihgfedccbbaaaa--------------------------------------------------------------------------
(PID.TID 0000.0001) //      0 --------------------------------------------------------------------------aaaabbccdefghiklnpqstvwxyz++++zyxwvtsqpnlkihgfedccbbaaaa--------------------------------------------------------------------------
(PID.TID 0000.0001) //     -1 --------------------------------------------------------------------------aaaabbccdefghiklnpqstvwxyz++++zyxwvtsqpnlkihgfedccbbaaaa--------------------------------------------------------------------------
(PID.TID 0000.0001) // =======================================================
(PID.TID 0000.0001) // END OF FIELD                                          =
(PID.TID 0000.0001) // =======================================================
(PID.TID 0000.0001) 
(PID.TID 0000.0001) // =======================================================
(PID.TID 0000.0001) // Field Model Ro_surf (ini_masks_etc)
(PID.TID 0000.0001) // CMIN =         -2.531308496145357E-14
(PID.TID 0000.0001) // CMAX =          3.153033389935445E-14
(PID.TID 0000.0001) // CINT =          2.105311809659556E-15
(PID.TID 0000.0001) // SYMBOLS (CMIN->CMAX): -abcdefghijklmnopqrstuvwxyz+
(PID.TID 0000.0001) //                  0.0: .
(PID.TID 0000.0001) // RANGE I (Lo:Hi:Step):(    -1:   202:     1)
(PID.TID 0000.0001) // RANGE J (Lo:Hi:Step):(     3:    -1:    -1)
(PID.TID 0000.0001) // RANGE K (Lo:Hi:Step):(   1:   1:   1)
(PID.TID 0000.0001) // =======================================================
(PID.TID 0000.0001) K =   1
(PID.TID 0000.0001) //                I=8       I=18      I=28      I=38      I=48      I=58      I=68      I=78      I=88      I=98      I=108     I=118     I=128     I=138     I=148     I=158     I=168     I=178     I=188     I=198
(PID.TID 0000.0001) // |--J--|101234567|901234567|901234567|901234567|901234567|901234567|901234567|901234567|901234567|901234567|901234567|901234567|901234567|901234567|901234567|901234567|901234567|901234567|901234567|901234567|9012
(PID.TID 0000.0001) //      3 nnnnnnnnnnnnnnnnnnnnnnnnnnnnnnnnnnnnnnnnnnnnnnnnnnnnnnnnnnnnnnnnnnnnnnnnnnnnnnnn----nnn-n-n-nn+nnnnnnnnnnnnnn+nn-n-n-nnn----nnnnnnnnnnnnnnnnnnnnnnnnnnnnnnnnnnnnnnnnnnnnnnnnnnnnnnnnnnnnnnnnnnnnnnnnnnnnnnnn
(PID.TID 0000.0001) //      2 nnnnnnnnnnnnnnnnnnnnnnnnnnnnnnnnnnnnnnnnnnnnnnnnnnnnnnnnnnnnnnnnnnnnnnnnnnnnnnnn----nnn-n-n-nn+nnnnnnnnnnnnnn+nn-n-n-nnn----nnnnnnnnnnnnnnnnnnnnnnnnnnnnnnnnnnnnnnnnnnnnnnnnnnnnnnnnnnnnnnnnnnnnnnnnnnnnnnnn
(PID.TID 0000.0001) //      1 nnnnnnnnnnnnnnnnnnnnnnnnnnnnnnnnnnnnnnnnnnnnnnnnnnnnnnnnnnnnnnnnnnnnnnnnnnnnnnnn----nnn-n-n-nn+nnnnnnnnnnnnnn+nn-n-n-nnn----nnnnnnnnnnnnnnnnnnnnnnnnnnnnnnnnnnnnnnnnnnnnnnnnnnnnnnnnnnnnnnnnnnnnnnnnnnnnnnnn
(PID.TID 0000.0001) //      0 nnnnnnnnnnnnnnnnnnnnnnnnnnnnnnnnnnnnnnnnnnnnnnnnnnnnnnnnnnnnnnnnnnnnnnnnnnnnnnnn----nnn-n-n-nn+nnnnnnnnnnnnnn+nn-n-n-nnn----nnnnnnnnnnnnnnnnnnnnnnnnnnnnnnnnnnnnnnnnnnnnnnnnnnnnnnnnnnnnnnnnnnnnnnnnnnnnnnnn
(PID.TID 0000.0001) //     -1 nnnnnnnnnnnnnnnnnnnnnnnnnnnnnnnnnnnnnnnnnnnnnnnnnnnnnnnnnnnnnnnnnnnnnnnnnnnnnnnn----nnn-n-n-nn+nnnnnnnnnnnnnn+nn-n-n-nnn----nnnnnnnnnnnnnnnnnnnnnnnnnnnnnnnnnnnnnnnnnnnnnnnnnnnnnnnnnnnnnnnnnnnnnnnnnnnnnnnn
(PID.TID 0000.0001) // =======================================================
(PID.TID 0000.0001) // END OF FIELD                                          =
(PID.TID 0000.0001) // =======================================================
(PID.TID 0000.0001) 
(PID.TID 0000.0001) // =======================================================
(PID.TID 0000.0001) // Field hFacC at iteration          0
(PID.TID 0000.0001) // CMIN =          1.000000000000000E+00
(PID.TID 0000.0001) // CMAX =          1.000000000000000E+00
(PID.TID 0000.0001) // CINT =          0.000000000000000E+00
(PID.TID 0000.0001) // SYMBOLS (CMIN->CMAX): -abcdefghijklmnopqrstuvwxyz+
(PID.TID 0000.0001) //                  0.0: .
(PID.TID 0000.0001) // RANGE I (Lo:Hi:Step):(    -1:   202:     1)
(PID.TID 0000.0001) // RANGE J (Lo:Hi:Step):(     3:    -1:    -1)
(PID.TID 0000.0001) // RANGE K (Lo:Hi:Step):(   1:   1:   1)
(PID.TID 0000.0001) // =======================================================
(PID.TID 0000.0001) // =======================================================
(PID.TID 0000.0001) // END OF FIELD                                          =
(PID.TID 0000.0001) // =======================================================
(PID.TID 0000.0001) 
(PID.TID 0000.0001) // =======================================================
(PID.TID 0000.0001) // Field hFacW at iteration          0
(PID.TID 0000.0001) // CMIN =          1.000000000000000E+00
(PID.TID 0000.0001) // CMAX =          1.000000000000000E+00
(PID.TID 0000.0001) // CINT =          0.000000000000000E+00
(PID.TID 0000.0001) // SYMBOLS (CMIN->CMAX): -abcdefghijklmnopqrstuvwxyz+
(PID.TID 0000.0001) //                  0.0: .
(PID.TID 0000.0001) // RANGE I (Lo:Hi:Step):(    -1:   202:     1)
(PID.TID 0000.0001) // RANGE J (Lo:Hi:Step):(     3:    -1:    -1)
(PID.TID 0000.0001) // RANGE K (Lo:Hi:Step):(   1:   1:   1)
(PID.TID 0000.0001) // =======================================================
(PID.TID 0000.0001) // =======================================================
(PID.TID 0000.0001) // END OF FIELD                                          =
(PID.TID 0000.0001) // =======================================================
(PID.TID 0000.0001) 
(PID.TID 0000.0001) // =======================================================
(PID.TID 0000.0001) // Field hFacS at iteration          0
(PID.TID 0000.0001) // CMIN =          1.000000000000000E+00
(PID.TID 0000.0001) // CMAX =          1.000000000000000E+00
(PID.TID 0000.0001) // CINT =          0.000000000000000E+00
(PID.TID 0000.0001) // SYMBOLS (CMIN->CMAX): -abcdefghijklmnopqrstuvwxyz+
(PID.TID 0000.0001) //                  0.0: .
(PID.TID 0000.0001) // RANGE I (Lo:Hi:Step):(    -1:   202:     1)
(PID.TID 0000.0001) // RANGE J (Lo:Hi:Step):(     3:    -1:    -1)
(PID.TID 0000.0001) // RANGE K (Lo:Hi:Step):(   1:   1:   1)
(PID.TID 0000.0001) // =======================================================
(PID.TID 0000.0001) // =======================================================
(PID.TID 0000.0001) // END OF FIELD                                          =
(PID.TID 0000.0001) // =======================================================
(PID.TID 0000.0001) 
(PID.TID 0000.0001) GAD_INIT_FIXED: GAD_OlMinSize=  2  0  1
(PID.TID 0000.0001) 
(PID.TID 0000.0001) // ===================================
(PID.TID 0000.0001) // GAD parameters :
(PID.TID 0000.0001) // ===================================
(PID.TID 0000.0001) tempAdvScheme =   /* Temp. Horiz.Advection scheme selector */
(PID.TID 0000.0001)                      77
(PID.TID 0000.0001)     ;
(PID.TID 0000.0001) tempVertAdvScheme =   /* Temp. Vert. Advection scheme selector */
(PID.TID 0000.0001)                      77
(PID.TID 0000.0001)     ;
(PID.TID 0000.0001) tempMultiDimAdvec =   /* use Muti-Dim Advec method for Temp */
(PID.TID 0000.0001)                   T
(PID.TID 0000.0001)     ;
(PID.TID 0000.0001) tempSOM_Advection = /* use 2nd Order Moment Advection for Temp */
(PID.TID 0000.0001)                   F
(PID.TID 0000.0001)     ;
(PID.TID 0000.0001) AdamsBashforthGt = /* apply Adams-Bashforth extrapolation on Gt */
(PID.TID 0000.0001)                   F
(PID.TID 0000.0001)     ;
(PID.TID 0000.0001) AdamsBashforth_T = /* apply Adams-Bashforth extrapolation on Temp */
(PID.TID 0000.0001)                   F
(PID.TID 0000.0001)     ;
(PID.TID 0000.0001) saltAdvScheme =   /* Salt. Horiz.advection scheme selector */
(PID.TID 0000.0001)                       2
(PID.TID 0000.0001)     ;
(PID.TID 0000.0001) saltVertAdvScheme =   /* Salt. Vert. Advection scheme selector */
(PID.TID 0000.0001)                       2
(PID.TID 0000.0001)     ;
(PID.TID 0000.0001) saltMultiDimAdvec =   /* use Muti-Dim Advec method for Salt */
(PID.TID 0000.0001)                   F
(PID.TID 0000.0001)     ;
(PID.TID 0000.0001) saltSOM_Advection = /* use 2nd Order Moment Advection for Salt */
(PID.TID 0000.0001)                   F
(PID.TID 0000.0001)     ;
(PID.TID 0000.0001) AdamsBashforthGs = /* apply Adams-Bashforth extrapolation on Gs */
(PID.TID 0000.0001)                   F
(PID.TID 0000.0001)     ;
(PID.TID 0000.0001) AdamsBashforth_S = /* apply Adams-Bashforth extrapolation on Salt */
(PID.TID 0000.0001)                   F
(PID.TID 0000.0001)     ;
(PID.TID 0000.0001) // ===================================
(PID.TID 0000.0001) %MON fCori_max                    =   0.0000000000000E+00
(PID.TID 0000.0001) %MON fCori_min                    =   0.0000000000000E+00
(PID.TID 0000.0001) %MON fCori_mean                   =   0.0000000000000E+00
(PID.TID 0000.0001) %MON fCori_sd                     =   0.0000000000000E+00
(PID.TID 0000.0001) %MON fCoriG_max                   =   0.0000000000000E+00
(PID.TID 0000.0001) %MON fCoriG_min                   =   0.0000000000000E+00
(PID.TID 0000.0001) %MON fCoriG_mean                  =   0.0000000000000E+00
(PID.TID 0000.0001) %MON fCoriG_sd                    =   0.0000000000000E+00
(PID.TID 0000.0001) %MON fCoriCos_max                 =   0.0000000000000E+00
(PID.TID 0000.0001) %MON fCoriCos_min                 =   0.0000000000000E+00
(PID.TID 0000.0001) %MON fCoriCos_mean                =   0.0000000000000E+00
(PID.TID 0000.0001) %MON fCoriCos_sd                  =   0.0000000000000E+00
(PID.TID 0000.0001) INI_CG2D: CG2D normalisation factor =  2.2135898720948493E-04
(PID.TID 0000.0001) 
(PID.TID 0000.0001) // =======================================================
(PID.TID 0000.0001) // Model configuration
(PID.TID 0000.0001) // =======================================================
(PID.TID 0000.0001) //
(PID.TID 0000.0001) // "Physical" paramters ( PARM01 in namelist )
(PID.TID 0000.0001) //
(PID.TID 0000.0001) buoyancyRelation = /* Type of relation to get Buoyancy */
(PID.TID 0000.0001)               'OCEANIC'
(PID.TID 0000.0001)     ;
(PID.TID 0000.0001) fluidIsAir   =  /* fluid major constituent is Air */
(PID.TID 0000.0001)                   F
(PID.TID 0000.0001)     ;
(PID.TID 0000.0001) fluidIsWater =  /* fluid major constituent is Water */
(PID.TID 0000.0001)                   T
(PID.TID 0000.0001)     ;
(PID.TID 0000.0001) usingPCoords =  /* use p (or p*) vertical coordinate */
(PID.TID 0000.0001)                   F
(PID.TID 0000.0001)     ;
(PID.TID 0000.0001) usingZCoords =  /* use z (or z*) vertical coordinate */
(PID.TID 0000.0001)                   T
(PID.TID 0000.0001)     ;
(PID.TID 0000.0001) tRef =   /* Reference temperature profile ( oC or K ) */
(PID.TID 0000.0001)    46 @  1.500000000000000E+01,             /* K =  1: 46 */
(PID.TID 0000.0001)                 1.499933084687693E+01,      /* K = 47 */
(PID.TID 0000.0001)                 1.497717153877677E+01,      /* K = 48 */
(PID.TID 0000.0001)                 1.470721590167325E+01,      /* K = 49 */
(PID.TID 0000.0001)                 1.349735867339025E+01,      /* K = 50 */
(PID.TID 0000.0001)                 1.150264132660976E+01,      /* K = 51 */
(PID.TID 0000.0001)                 1.029278409832675E+01,      /* K = 52 */
(PID.TID 0000.0001)                 1.002282846122323E+01,      /* K = 53 */
(PID.TID 0000.0001)                 1.000066915312308E+01,      /* K = 54 */
(PID.TID 0000.0001)    46 @  1.000000000000000E+01              /* K = 55:100 */
(PID.TID 0000.0001)     ;
(PID.TID 0000.0001) sRef =   /* Reference salinity profile ( psu ) */
(PID.TID 0000.0001)   100 @  3.500000000000000E+01              /* K =  1:100 */
(PID.TID 0000.0001)     ;
(PID.TID 0000.0001) useStrainTensionVisc= /* Use StrainTension Form of Viscous Operator */
(PID.TID 0000.0001)                   F
(PID.TID 0000.0001)     ;
(PID.TID 0000.0001) useVariableVisc = /* Use variable horizontal viscosity */
(PID.TID 0000.0001)                   F
(PID.TID 0000.0001)     ;
(PID.TID 0000.0001) useHarmonicVisc = /* Use harmonic horizontal viscosity */
(PID.TID 0000.0001)                   T
(PID.TID 0000.0001)     ;
(PID.TID 0000.0001) useBiharmonicVisc= /* Use biharmonic horiz.  viscosity */
(PID.TID 0000.0001)                   F
(PID.TID 0000.0001)     ;
(PID.TID 0000.0001) useSmag3D = /* Use isotropic 3-D Smagorinsky viscosity */
(PID.TID 0000.0001)                   F
(PID.TID 0000.0001)     ;
(PID.TID 0000.0001) viscAh  =   /* Lateral harmonic viscosity ( m^2/s ) */
(PID.TID 0000.0001)                 1.000000000000000E-04
(PID.TID 0000.0001)     ;
(PID.TID 0000.0001) viscA4  =   /* Lateral biharmonic viscosity ( m^4/s ) */
(PID.TID 0000.0001)                 0.000000000000000E+00
(PID.TID 0000.0001)     ;
(PID.TID 0000.0001) no_slip_sides =  /* Viscous BCs: No-slip sides */
(PID.TID 0000.0001)                   F
(PID.TID 0000.0001)     ;
(PID.TID 0000.0001) sideDragFactor = /* side-drag scaling factor (non-dim) */
(PID.TID 0000.0001)                 2.000000000000000E+00
(PID.TID 0000.0001)     ;
(PID.TID 0000.0001) viscArNr = /* vertical profile of vertical viscosity ( m^2/s )*/
(PID.TID 0000.0001)   100 @  1.000000000000000E-05              /* K =  1:100 */
(PID.TID 0000.0001)     ;
(PID.TID 0000.0001) no_slip_bottom =  /* Viscous BCs: No-slip bottom */
(PID.TID 0000.0001)                   F
(PID.TID 0000.0001)     ;
(PID.TID 0000.0001) bottomDragLinear = /* linear bottom-drag coefficient ( m/s ) */
(PID.TID 0000.0001)                 0.000000000000000E+00
(PID.TID 0000.0001)     ;
(PID.TID 0000.0001) bottomDragQuadratic = /* quadratic bottom-drag coefficient (-) */
(PID.TID 0000.0001)                 0.000000000000000E+00
(PID.TID 0000.0001)     ;
(PID.TID 0000.0001) diffKhT =   /* Laplacian diffusion of heat laterally ( m^2/s ) */
(PID.TID 0000.0001)                 1.000000000000000E-04
(PID.TID 0000.0001)     ;
(PID.TID 0000.0001) diffK4T =   /* Biharmonic diffusion of heat laterally ( m^4/s ) */
(PID.TID 0000.0001)                 0.000000000000000E+00
(PID.TID 0000.0001)     ;
(PID.TID 0000.0001) diffKhS =   /* Laplacian diffusion of salt laterally ( m^2/s ) */
(PID.TID 0000.0001)                 1.000000000000000E+03
(PID.TID 0000.0001)     ;
(PID.TID 0000.0001) diffK4S =   /* Biharmonic diffusion of salt laterally ( m^4/s ) */
(PID.TID 0000.0001)                 0.000000000000000E+00
(PID.TID 0000.0001)     ;
(PID.TID 0000.0001) diffKrNrT = /* vertical profile of vertical diffusion of Temp ( m^2/s )*/
(PID.TID 0000.0001)   100 @  1.000000000000000E-05              /* K =  1:100 */
(PID.TID 0000.0001)     ;
(PID.TID 0000.0001) diffKrNrS = /* vertical profile of vertical diffusion of Salt ( m^2/s )*/
(PID.TID 0000.0001)   100 @  1.000000000000000E-05              /* K =  1:100 */
(PID.TID 0000.0001)     ;
(PID.TID 0000.0001) diffKrBL79surf = /* Surface diffusion for Bryan and Lewis 79 ( m^2/s ) */
(PID.TID 0000.0001)                 0.000000000000000E+00
(PID.TID 0000.0001)     ;
(PID.TID 0000.0001) diffKrBL79deep = /* Deep diffusion for Bryan and Lewis 1979 ( m^2/s ) */
(PID.TID 0000.0001)                 0.000000000000000E+00
(PID.TID 0000.0001)     ;
(PID.TID 0000.0001) diffKrBL79scl = /* Depth scale for Bryan and Lewis 1979 ( m ) */
(PID.TID 0000.0001)                 2.000000000000000E+02
(PID.TID 0000.0001)     ;
(PID.TID 0000.0001) diffKrBL79Ho = /* Turning depth for Bryan and Lewis 1979 ( m ) */
(PID.TID 0000.0001)                -2.000000000000000E+03
(PID.TID 0000.0001)     ;
(PID.TID 0000.0001) ivdc_kappa = /* Implicit Vertical Diffusivity for Convection ( m^2/s) */
(PID.TID 0000.0001)                 0.000000000000000E+00
(PID.TID 0000.0001)     ;
(PID.TID 0000.0001) hMixCriteria=  /* Criteria for mixed-layer diagnostic */
(PID.TID 0000.0001)                -8.000000000000000E-01
(PID.TID 0000.0001)     ;
(PID.TID 0000.0001) dRhoSmall =  /* Parameter for mixed-layer diagnostic */
(PID.TID 0000.0001)                 1.000000000000000E-06
(PID.TID 0000.0001)     ;
(PID.TID 0000.0001) hMixSmooth=  /* Smoothing parameter for mixed-layer diagnostic */
(PID.TID 0000.0001)                 0.000000000000000E+00
(PID.TID 0000.0001)     ;
(PID.TID 0000.0001) eosType =  /* Type of Equation of State */
(PID.TID 0000.0001)               'LINEAR'
(PID.TID 0000.0001)     ;
(PID.TID 0000.0001) tAlpha = /* Linear EOS thermal expansion coefficient ( 1/oC ) */
(PID.TID 0000.0001)                 2.000000000000000E-04
(PID.TID 0000.0001)     ;
(PID.TID 0000.0001) sBeta  = /* Linear EOS haline contraction coefficient ( 1/psu ) */
(PID.TID 0000.0001)                 0.000000000000000E+00
(PID.TID 0000.0001)     ;
(PID.TID 0000.0001) rhoNil    = /* Reference density for Linear EOS ( kg/m^3 ) */
(PID.TID 0000.0001)                 9.998000000000000E+02
(PID.TID 0000.0001)     ;
(PID.TID 0000.0001) HeatCapacity_Cp =  /* Specific heat capacity ( J/kg/K ) */
(PID.TID 0000.0001)                 3.994000000000000E+03
(PID.TID 0000.0001)     ;
(PID.TID 0000.0001) celsius2K = /* 0 degree Celsius converted to Kelvin ( K ) */
(PID.TID 0000.0001)                 2.731500000000000E+02
(PID.TID 0000.0001)     ;
(PID.TID 0000.0001) rhoConst  = /* Reference density (Boussinesq)  ( kg/m^3 ) */
(PID.TID 0000.0001)                 9.998000000000000E+02
(PID.TID 0000.0001)     ;
(PID.TID 0000.0001) rhoFacC = /* normalized Reference density @ cell-Center (-) */
(PID.TID 0000.0001)   100 @  1.000000000000000E+00              /* K =  1:100 */
(PID.TID 0000.0001)     ;
(PID.TID 0000.0001) rhoFacF = /* normalized Reference density @ W-Interface (-) */
(PID.TID 0000.0001)   101 @  1.000000000000000E+00              /* K =  1:101 */
(PID.TID 0000.0001)     ;
(PID.TID 0000.0001) rhoConstFresh = /* Fresh-water reference density ( kg/m^3 ) */
(PID.TID 0000.0001)                 9.998000000000000E+02
(PID.TID 0000.0001)     ;
(PID.TID 0000.0001) gravity =   /* Gravitational acceleration ( m/s^2 ) */
(PID.TID 0000.0001)                 9.810000000000000E+00
(PID.TID 0000.0001)     ;
(PID.TID 0000.0001) gBaro =   /* Barotropic gravity ( m/s^2 ) */
(PID.TID 0000.0001)                 9.810000000000000E+00
(PID.TID 0000.0001)     ;
(PID.TID 0000.0001) rotationPeriod =   /* Rotation Period ( s ) */
(PID.TID 0000.0001)                 8.616400000000000E+04
(PID.TID 0000.0001)     ;
(PID.TID 0000.0001) omega =   /* Angular velocity ( rad/s ) */
(PID.TID 0000.0001)                 7.292123516990375E-05
(PID.TID 0000.0001)     ;
(PID.TID 0000.0001) f0 =   /* Reference coriolis parameter ( 1/s ) */
(PID.TID 0000.0001)                 0.000000000000000E+00
(PID.TID 0000.0001)     ;
(PID.TID 0000.0001) beta =   /* Beta ( 1/(m.s) ) */
(PID.TID 0000.0001)                 0.000000000000000E+00
(PID.TID 0000.0001)     ;
(PID.TID 0000.0001) fPrime =   /* Second coriolis parameter ( 1/s ) */
(PID.TID 0000.0001)                 0.000000000000000E+00
(PID.TID 0000.0001)     ;
(PID.TID 0000.0001) rigidLid =   /* Rigid lid on/off flag */
(PID.TID 0000.0001)                   F
(PID.TID 0000.0001)     ;
(PID.TID 0000.0001) implicitFreeSurface =   /* Implicit free surface on/off flag */
(PID.TID 0000.0001)                   T
(PID.TID 0000.0001)     ;
(PID.TID 0000.0001) freeSurfFac =   /* Implicit free surface factor */
(PID.TID 0000.0001)                 1.000000000000000E+00
(PID.TID 0000.0001)     ;
(PID.TID 0000.0001) implicSurfPress =  /* Surface Pressure implicit factor (0-1)*/
(PID.TID 0000.0001)                 1.000000000000000E+00
(PID.TID 0000.0001)     ;
(PID.TID 0000.0001) implicDiv2Dflow =  /* Barot. Flow Div. implicit factor (0-1)*/
(PID.TID 0000.0001)                 1.000000000000000E+00
(PID.TID 0000.0001)     ;
(PID.TID 0000.0001) uniformLin_PhiSurf = /* use uniform Bo_surf on/off flag*/
(PID.TID 0000.0001)                   T
(PID.TID 0000.0001)     ;
(PID.TID 0000.0001) uniformFreeSurfLev = /* free-surface level-index is uniform */
(PID.TID 0000.0001)                   T
(PID.TID 0000.0001)     ;
(PID.TID 0000.0001) hFacMin =   /* minimum partial cell factor (hFac) */
(PID.TID 0000.0001)                 1.000000000000000E-01
(PID.TID 0000.0001)     ;
(PID.TID 0000.0001) hFacMinDr = /* minimum partial cell thickness ( m) */
(PID.TID 0000.0001)                 0.000000000000000E+00
(PID.TID 0000.0001)     ;
(PID.TID 0000.0001) exactConserv =  /* Exact Volume Conservation on/off flag*/
(PID.TID 0000.0001)                   F
(PID.TID 0000.0001)     ;
(PID.TID 0000.0001) linFSConserveTr = /* Tracer correction for Lin Free Surface on/off flag*/
(PID.TID 0000.0001)                   F
(PID.TID 0000.0001)     ;
(PID.TID 0000.0001) nonlinFreeSurf = /* Non-linear Free Surf. options (-1,0,1,2,3)*/
(PID.TID 0000.0001)                       0
(PID.TID 0000.0001)      -1,0= Off ; 1,2,3= On, 2=+rescale gU,gV, 3=+update cg2d solv.
(PID.TID 0000.0001)     ;
(PID.TID 0000.0001) hFacInf =   /* lower threshold for hFac (nonlinFreeSurf only)*/
(PID.TID 0000.0001)                 2.000000000000000E-01
(PID.TID 0000.0001)     ;
(PID.TID 0000.0001) hFacSup =   /* upper threshold for hFac (nonlinFreeSurf only)*/
(PID.TID 0000.0001)                 2.000000000000000E+00
(PID.TID 0000.0001)     ;
(PID.TID 0000.0001) select_rStar = /* r* Vertical coord. options (=0 r coord.; >0 uses r*)*/
(PID.TID 0000.0001)                       0
(PID.TID 0000.0001)     ;
(PID.TID 0000.0001) useRealFreshWaterFlux = /* Real Fresh Water Flux on/off flag*/
(PID.TID 0000.0001)                   F
(PID.TID 0000.0001)     ;
(PID.TID 0000.0001) temp_EvPrRn = /* Temp. of Evap/Prec/R (UNSET=use local T)(oC)*/
(PID.TID 0000.0001)                 1.234567000000000E+05
(PID.TID 0000.0001)     ;
(PID.TID 0000.0001) salt_EvPrRn = /* Salin. of Evap/Prec/R (UNSET=use local S)(psu)*/
(PID.TID 0000.0001)                 0.000000000000000E+00
(PID.TID 0000.0001)     ;
(PID.TID 0000.0001) selectAddFluid = /* option for mass source/sink of fluid (=0: off) */
(PID.TID 0000.0001)                       0
(PID.TID 0000.0001)     ;
(PID.TID 0000.0001) temp_addMass = /* Temp. of addMass array (UNSET=use local T)(oC)*/
(PID.TID 0000.0001)                 1.234567000000000E+05
(PID.TID 0000.0001)     ;
(PID.TID 0000.0001) salt_addMass = /* Salin. of addMass array (UNSET=use local S)(psu)*/
(PID.TID 0000.0001)                 0.000000000000000E+00
(PID.TID 0000.0001)     ;
(PID.TID 0000.0001) convertFW2Salt = /* convert F.W. Flux to Salt Flux (-1=use local S)(psu)*/
(PID.TID 0000.0001)                 3.500000000000000E+01
(PID.TID 0000.0001)     ;
(PID.TID 0000.0001) use3Dsolver = /* use 3-D pressure solver on/off flag */
(PID.TID 0000.0001)                   F
(PID.TID 0000.0001)     ;
(PID.TID 0000.0001) nonHydrostatic =  /* Non-Hydrostatic on/off flag */
(PID.TID 0000.0001)                   F
(PID.TID 0000.0001)     ;
(PID.TID 0000.0001) nh_Am2 = /* Non-Hydrostatic terms scaling factor */
(PID.TID 0000.0001)                 1.000000000000000E+00
(PID.TID 0000.0001)     ;
(PID.TID 0000.0001) implicitNHPress = /* Non-Hyd Pressure implicit factor (0-1)*/
(PID.TID 0000.0001)                 1.000000000000000E+00
(PID.TID 0000.0001)     ;
(PID.TID 0000.0001) selectNHfreeSurf = /* Non-Hyd (free-)Surface option */
(PID.TID 0000.0001)                       0
(PID.TID 0000.0001)     ;
(PID.TID 0000.0001) quasiHydrostatic = /* Quasi-Hydrostatic on/off flag */
(PID.TID 0000.0001)                   F
(PID.TID 0000.0001)     ;
(PID.TID 0000.0001) calc_wVelocity = /* vertical velocity calculation on/off flag */
(PID.TID 0000.0001)                   T
(PID.TID 0000.0001)     ;
(PID.TID 0000.0001) momStepping =  /* Momentum equation on/off flag */
(PID.TID 0000.0001)                   T
(PID.TID 0000.0001)     ;
(PID.TID 0000.0001) vectorInvariantMomentum= /* Vector-Invariant Momentum on/off */
(PID.TID 0000.0001)                   F
(PID.TID 0000.0001)     ;
(PID.TID 0000.0001) momAdvection =  /* Momentum advection on/off flag */
(PID.TID 0000.0001)                   T
(PID.TID 0000.0001)     ;
(PID.TID 0000.0001) momViscosity =  /* Momentum viscosity on/off flag */
(PID.TID 0000.0001)                   T
(PID.TID 0000.0001)     ;
(PID.TID 0000.0001) momImplVertAdv= /* Momentum implicit vert. advection on/off*/
(PID.TID 0000.0001)                   F
(PID.TID 0000.0001)     ;
(PID.TID 0000.0001) implicitViscosity = /* Implicit viscosity on/off flag */
(PID.TID 0000.0001)                   T
(PID.TID 0000.0001)     ;
(PID.TID 0000.0001) metricTerms =  /* metric-Terms on/off flag */
(PID.TID 0000.0001)                   F
(PID.TID 0000.0001)     ;
(PID.TID 0000.0001) useNHMTerms = /* Non-Hydrostatic Metric-Terms on/off */
(PID.TID 0000.0001)                   F
(PID.TID 0000.0001)     ;
(PID.TID 0000.0001) selectCoriMap = /* Coriolis Map options (0,1,2,3)*/
(PID.TID 0000.0001)                       1
(PID.TID 0000.0001)     0= f-Plane ; 1= Beta-Plane ; 2= Spherical ; 3= read from file
(PID.TID 0000.0001)     ;
(PID.TID 0000.0001) use3dCoriolis = /* 3-D Coriolis on/off flag */
(PID.TID 0000.0001)                   F
(PID.TID 0000.0001)     ;
(PID.TID 0000.0001) useCoriolis =  /* Coriolis on/off flag */
(PID.TID 0000.0001)                   T
(PID.TID 0000.0001)     ;
(PID.TID 0000.0001) useCDscheme =  /* CD scheme on/off flag */
(PID.TID 0000.0001)                   F
(PID.TID 0000.0001)     ;
(PID.TID 0000.0001) useEnergyConservingCoriolis= /* Flx-Form Coriolis scheme flag */
(PID.TID 0000.0001)                   F
(PID.TID 0000.0001)     ;
(PID.TID 0000.0001) useJamartWetPoints= /* Coriolis WetPoints method flag */
(PID.TID 0000.0001)                   F
(PID.TID 0000.0001)     ;
(PID.TID 0000.0001) useJamartMomAdv= /* V.I Non-linear terms Jamart flag */
(PID.TID 0000.0001)                   F
(PID.TID 0000.0001)     ;
(PID.TID 0000.0001) useAbsVorticity= /* V.I Works with f+zeta in Coriolis */
(PID.TID 0000.0001)                   F
(PID.TID 0000.0001)     ;
(PID.TID 0000.0001) selectVortScheme= /* V.I Scheme selector for Vorticity-Term */
(PID.TID 0000.0001)               123456789
(PID.TID 0000.0001)    = 0 : enstrophy (Shallow-Water Eq.) conserving scheme by Sadourny, JAS 75
(PID.TID 0000.0001)    = 1 : same as 0 with modified hFac
(PID.TID 0000.0001)    = 2 : energy conserving scheme (used by Sadourny in JAS 75 paper)
(PID.TID 0000.0001)    = 3 : energy (general) and enstrophy (2D, nonDiv.) conserving scheme
(PID.TID 0000.0001)          from Sadourny (Burridge & Haseler, ECMWF Rep.4, 1977)
(PID.TID 0000.0001)     ;
(PID.TID 0000.0001) upwindVorticity= /* V.I Upwind bias vorticity flag */
(PID.TID 0000.0001)                   F
(PID.TID 0000.0001)     ;
(PID.TID 0000.0001) highOrderVorticity= /* V.I High order vort. advect. flag */
(PID.TID 0000.0001)                   F
(PID.TID 0000.0001)     ;
(PID.TID 0000.0001) upwindShear= /* V.I Upwind vertical Shear advection flag */
(PID.TID 0000.0001)                   F
(PID.TID 0000.0001)     ;
(PID.TID 0000.0001) selectKEscheme= /* V.I Kinetic Energy scheme selector */
(PID.TID 0000.0001)                       0
(PID.TID 0000.0001)     ;
(PID.TID 0000.0001) momForcing =  /* Momentum forcing on/off flag */
(PID.TID 0000.0001)                   T
(PID.TID 0000.0001)     ;
(PID.TID 0000.0001) momPressureForcing =  /* Momentum pressure term on/off flag */
(PID.TID 0000.0001)                   T
(PID.TID 0000.0001)     ;
(PID.TID 0000.0001) implicitIntGravWave= /* Implicit Internal Gravity Wave flag */
(PID.TID 0000.0001)                   F
(PID.TID 0000.0001)     ;
(PID.TID 0000.0001) staggerTimeStep =    /* Stagger time stepping on/off flag */
(PID.TID 0000.0001)                   T
(PID.TID 0000.0001)     ;
(PID.TID 0000.0001) doResetHFactors = /* reset thickness factors @ each time-step */
(PID.TID 0000.0001)                   F
(PID.TID 0000.0001)     ;
(PID.TID 0000.0001) multiDimAdvection =  /* enable/disable Multi-Dim Advection */
(PID.TID 0000.0001)                   T
(PID.TID 0000.0001)     ;
(PID.TID 0000.0001) useMultiDimAdvec =   /* Multi-Dim Advection is/is-not used */
(PID.TID 0000.0001)                   T
(PID.TID 0000.0001)     ;
(PID.TID 0000.0001) implicitDiffusion = /* Implicit Diffusion on/off flag */
(PID.TID 0000.0001)                   T
(PID.TID 0000.0001)     ;
(PID.TID 0000.0001) tempStepping =  /* Temperature equation on/off flag */
(PID.TID 0000.0001)                   T
(PID.TID 0000.0001)     ;
(PID.TID 0000.0001) tempAdvection = /* Temperature advection on/off flag */
(PID.TID 0000.0001)                   T
(PID.TID 0000.0001)     ;
(PID.TID 0000.0001) tempImplVertAdv = /* Temp. implicit vert. advection on/off */
(PID.TID 0000.0001)                   F
(PID.TID 0000.0001)     ;
(PID.TID 0000.0001) tempForcing  =  /* Temperature forcing on/off flag */
(PID.TID 0000.0001)                   T
(PID.TID 0000.0001)     ;
(PID.TID 0000.0001) doThetaClimRelax = /* apply SST relaxation on/off flag */
(PID.TID 0000.0001)                   F
(PID.TID 0000.0001)     ;
(PID.TID 0000.0001) tempIsActiveTr = /* Temp. is a dynamically Active Tracer */
(PID.TID 0000.0001)                   T
(PID.TID 0000.0001)     ;
(PID.TID 0000.0001) saltStepping =  /* Salinity equation on/off flag */
(PID.TID 0000.0001)                   F
(PID.TID 0000.0001)     ;
(PID.TID 0000.0001) saltAdvection = /* Salinity advection on/off flag */
(PID.TID 0000.0001)                   F
(PID.TID 0000.0001)     ;
(PID.TID 0000.0001) saltImplVertAdv = /* Sali. implicit vert. advection on/off */
(PID.TID 0000.0001)                   F
(PID.TID 0000.0001)     ;
(PID.TID 0000.0001) saltForcing  =  /* Salinity forcing on/off flag */
(PID.TID 0000.0001)                   F
(PID.TID 0000.0001)     ;
(PID.TID 0000.0001) doSaltClimRelax = /* apply SSS relaxation on/off flag */
(PID.TID 0000.0001)                   F
(PID.TID 0000.0001)     ;
(PID.TID 0000.0001) saltIsActiveTr = /* Salt  is a dynamically Active Tracer */
(PID.TID 0000.0001)                   F
(PID.TID 0000.0001)     ;
(PID.TID 0000.0001)  readBinaryPrec = /* Precision used for reading binary files */
(PID.TID 0000.0001)                      64
(PID.TID 0000.0001)     ;
(PID.TID 0000.0001) writeBinaryPrec = /* Precision used for writing binary files */
(PID.TID 0000.0001)                      64
(PID.TID 0000.0001)     ;
(PID.TID 0000.0001)  globalFiles = /* write "global" (=not per tile) files */
(PID.TID 0000.0001)                   F
(PID.TID 0000.0001)     ;
(PID.TID 0000.0001)  useSingleCpuIO = /* only master MPI process does I/O */
(PID.TID 0000.0001)                   T
(PID.TID 0000.0001)     ;
(PID.TID 0000.0001)  useSingleCpuInput = /* only master process reads input */
(PID.TID 0000.0001)                   T
(PID.TID 0000.0001)     ;
(PID.TID 0000.0001) /* debLev[*]  : level of debug & auxiliary message printing */
(PID.TID 0000.0001) debLevZero =  0 ; /* level of disabled aux. msg printing */
(PID.TID 0000.0001)    debLevA =  1 ; /* level of minimum  aux. msg printing */
(PID.TID 0000.0001)    debLevB =  2 ; /* level of low aux. print (report read-file opening)*/
(PID.TID 0000.0001)    debLevC =  3 ; /* level of moderate debug prt (most pkgs debug msg) */
(PID.TID 0000.0001)    debLevD =  4 ; /* level of enhanced debug prt (add DEBUG_STATS prt) */
(PID.TID 0000.0001)    debLevE =  5 ; /* level of extensive debug printing */
(PID.TID 0000.0001) debugLevel =  /* select debug printing level */
(PID.TID 0000.0001)                       2
(PID.TID 0000.0001)     ;
(PID.TID 0000.0001) //
(PID.TID 0000.0001) // Elliptic solver(s) paramters ( PARM02 in namelist )
(PID.TID 0000.0001) //
(PID.TID 0000.0001) cg2dMaxIters =   /* Upper limit on 2d con. grad iterations  */
(PID.TID 0000.0001)                    1000
(PID.TID 0000.0001)     ;
(PID.TID 0000.0001) cg2dChkResFreq =   /* 2d con. grad convergence test frequency */
(PID.TID 0000.0001)                       1
(PID.TID 0000.0001)     ;
(PID.TID 0000.0001) cg2dUseMinResSol= /* use cg2d last-iter(=0) / min-resid.(=1) solution */
(PID.TID 0000.0001)                       0
(PID.TID 0000.0001)     ;
(PID.TID 0000.0001) cg2dTargetResidual =   /* 2d con. grad target residual  */
(PID.TID 0000.0001)                 1.000000000000000E-13
(PID.TID 0000.0001)     ;
(PID.TID 0000.0001) cg2dTargetResWunit =   /* CG2d target residual [W units] */
(PID.TID 0000.0001)                -1.000000000000000E+00
(PID.TID 0000.0001)     ;
(PID.TID 0000.0001) cg2dPreCondFreq =   /* Freq. for updating cg2d preconditioner */
(PID.TID 0000.0001)                       1
(PID.TID 0000.0001)     ;
(PID.TID 0000.0001) useSRCGSolver =  /* use single reduction CG solver(s) */
(PID.TID 0000.0001)                   F
(PID.TID 0000.0001)     ;
(PID.TID 0000.0001) printResidualFreq = /* Freq. for printing CG residual */
(PID.TID 0000.0001)                       0
(PID.TID 0000.0001)     ;
(PID.TID 0000.0001) //
(PID.TID 0000.0001) // Time stepping paramters ( PARM03 in namelist )
(PID.TID 0000.0001) //
(PID.TID 0000.0001) deltaTMom =   /* Momentum equation timestep ( s ) */
(PID.TID 0000.0001)                 1.500000000000000E+01
(PID.TID 0000.0001)     ;
(PID.TID 0000.0001) deltaTFreeSurf = /* FreeSurface equation timestep ( s ) */
(PID.TID 0000.0001)                 1.500000000000000E+01
(PID.TID 0000.0001)     ;
(PID.TID 0000.0001) dTtracerLev =  /* Tracer equation timestep ( s ) */
(PID.TID 0000.0001)   100 @  1.500000000000000E+01              /* K =  1:100 */
(PID.TID 0000.0001)     ;
(PID.TID 0000.0001) deltaTClock  =   /* Model clock timestep ( s ) */
(PID.TID 0000.0001)                 1.500000000000000E+01
(PID.TID 0000.0001)     ;
(PID.TID 0000.0001) cAdjFreq =   /* Convective adjustment interval ( s ) */
(PID.TID 0000.0001)                 0.000000000000000E+00
(PID.TID 0000.0001)     ;
(PID.TID 0000.0001) momForcingOutAB = /* =1: take Momentum Forcing out of Adams-Bash. stepping */
(PID.TID 0000.0001)                       0
(PID.TID 0000.0001)     ;
(PID.TID 0000.0001) tracForcingOutAB = /* =1: take T,S,pTr Forcing out of Adams-Bash. stepping */
(PID.TID 0000.0001)                       0
(PID.TID 0000.0001)     ;
(PID.TID 0000.0001) momDissip_In_AB = /* put Dissipation Tendency in Adams-Bash. stepping */
(PID.TID 0000.0001)                   T
(PID.TID 0000.0001)     ;
(PID.TID 0000.0001) doAB_onGtGs = /* apply AB on Tendencies (rather than on T,S)*/
(PID.TID 0000.0001)                   T
(PID.TID 0000.0001)     ;
(PID.TID 0000.0001) abEps =   /* Adams-Bashforth-2 stabilizing weight */
(PID.TID 0000.0001)                 1.000000000000000E-01
(PID.TID 0000.0001)     ;
(PID.TID 0000.0001) pickupStrictlyMatch= /* stop if pickup do not strictly match */
(PID.TID 0000.0001)                   T
(PID.TID 0000.0001)     ;
(PID.TID 0000.0001) nIter0   =   /* Run starting timestep number */
(PID.TID 0000.0001)                       0
(PID.TID 0000.0001)     ;
(PID.TID 0000.0001) nTimeSteps = /* Number of timesteps */
(PID.TID 0000.0001)                    7200
(PID.TID 0000.0001)     ;
(PID.TID 0000.0001) nEndIter =   /* Run ending timestep number */
(PID.TID 0000.0001)                    7200
(PID.TID 0000.0001)     ;
(PID.TID 0000.0001) baseTime =   /* Model base time ( s ) */
(PID.TID 0000.0001)                 0.000000000000000E+00
(PID.TID 0000.0001)     ;
(PID.TID 0000.0001) startTime =  /* Run start time ( s ) */
(PID.TID 0000.0001)                 0.000000000000000E+00
(PID.TID 0000.0001)     ;
(PID.TID 0000.0001) endTime  =   /* Integration ending time ( s ) */
(PID.TID 0000.0001)                 1.080000000000000E+05
(PID.TID 0000.0001)     ;
(PID.TID 0000.0001) pChkPtFreq = /* Permanent restart/pickup file interval ( s ) */
(PID.TID 0000.0001)                 2.160000000000000E+04
(PID.TID 0000.0001)     ;
(PID.TID 0000.0001) chkPtFreq  = /* Rolling restart/pickup file interval ( s ) */
(PID.TID 0000.0001)                 0.000000000000000E+00
(PID.TID 0000.0001)     ;
(PID.TID 0000.0001) pickup_write_mdsio =   /* Model IO flag. */
(PID.TID 0000.0001)                   T
(PID.TID 0000.0001)     ;
(PID.TID 0000.0001) pickup_read_mdsio =   /* Model IO flag. */
(PID.TID 0000.0001)                   T
(PID.TID 0000.0001)     ;
(PID.TID 0000.0001) pickup_write_immed =   /* Model IO flag. */
(PID.TID 0000.0001)                   F
(PID.TID 0000.0001)     ;
(PID.TID 0000.0001) writePickupAtEnd =   /* Model IO flag. */
(PID.TID 0000.0001)                   T
(PID.TID 0000.0001)     ;
(PID.TID 0000.0001) dumpFreq =   /* Model state write out interval ( s ). */
(PID.TID 0000.0001)                 7.200000000000000E+03
(PID.TID 0000.0001)     ;
(PID.TID 0000.0001) dumpInitAndLast= /* write out Initial & Last iter. model state */
(PID.TID 0000.0001)                   T
(PID.TID 0000.0001)     ;
(PID.TID 0000.0001) snapshot_mdsio =   /* Model IO flag. */
(PID.TID 0000.0001)                   T
(PID.TID 0000.0001)     ;
(PID.TID 0000.0001) monitorFreq =   /* Monitor output interval ( s ). */
(PID.TID 0000.0001)                 7.200000000000000E+03
(PID.TID 0000.0001)     ;
(PID.TID 0000.0001) monitorSelect = /* select group of variables to monitor */
(PID.TID 0000.0001)                       3
(PID.TID 0000.0001)     ;
(PID.TID 0000.0001) monitor_stdio =   /* Model IO flag. */
(PID.TID 0000.0001)                   T
(PID.TID 0000.0001)     ;
(PID.TID 0000.0001) externForcingPeriod =   /* forcing period (s) */
(PID.TID 0000.0001)                 0.000000000000000E+00
(PID.TID 0000.0001)     ;
(PID.TID 0000.0001) externForcingCycle =   /* period of the cyle (s). */
(PID.TID 0000.0001)                 0.000000000000000E+00
(PID.TID 0000.0001)     ;
(PID.TID 0000.0001) tauThetaClimRelax =   /* relaxation time scale (s) */
(PID.TID 0000.0001)                 0.000000000000000E+00
(PID.TID 0000.0001)     ;
(PID.TID 0000.0001) tauSaltClimRelax =   /* relaxation time scale (s) */
(PID.TID 0000.0001)                 0.000000000000000E+00
(PID.TID 0000.0001)     ;
(PID.TID 0000.0001) latBandClimRelax =   /* max. Lat. where relaxation */
(PID.TID 0000.0001)                 1.500000000000000E+04
(PID.TID 0000.0001)     ;
(PID.TID 0000.0001) //
(PID.TID 0000.0001) // Gridding paramters ( PARM04 in namelist )
(PID.TID 0000.0001) //
(PID.TID 0000.0001) usingCartesianGrid = /* Cartesian coordinates flag ( True/False ) */
(PID.TID 0000.0001)                   T
(PID.TID 0000.0001)     ;
(PID.TID 0000.0001) usingCylindricalGrid = /* Cylindrical coordinates flag ( True/False ) */
(PID.TID 0000.0001)                   F
(PID.TID 0000.0001)     ;
(PID.TID 0000.0001) usingSphericalPolarGrid = /* Spherical coordinates flag ( True/False ) */
(PID.TID 0000.0001)                   F
(PID.TID 0000.0001)     ;
(PID.TID 0000.0001) usingCurvilinearGrid = /* Curvilinear coordinates flag ( True/False ) */
(PID.TID 0000.0001)                   F
(PID.TID 0000.0001)     ;
(PID.TID 0000.0001) selectSigmaCoord = /* Hybrid-Sigma Vert. Coordinate option */
(PID.TID 0000.0001)                       0
(PID.TID 0000.0001)     ;
(PID.TID 0000.0001) Ro_SeaLevel = /* r(1) ( units of r ==  m ) */
(PID.TID 0000.0001)                 0.000000000000000E+00
(PID.TID 0000.0001)     ;
(PID.TID 0000.0001) rSigmaBnd = /* r/sigma transition ( units of r ==  m ) */
(PID.TID 0000.0001)                 1.234567000000000E+05
(PID.TID 0000.0001)     ;
(PID.TID 0000.0001) rkSign =   /* index orientation relative to vertical coordinate */
(PID.TID 0000.0001)                -1.000000000000000E+00
(PID.TID 0000.0001)     ;
(PID.TID 0000.0001) gravitySign = /* gravity orientation relative to vertical coordinate */
(PID.TID 0000.0001)                -1.000000000000000E+00
(PID.TID 0000.0001)     ;
(PID.TID 0000.0001) mass2rUnit = /* convert mass per unit area [kg/m2] to r-units [m] */
(PID.TID 0000.0001)                 1.000200040008002E-03
(PID.TID 0000.0001)     ;
(PID.TID 0000.0001) rUnit2mass = /* convert r-units [m] to mass per unit area [kg/m2] */
(PID.TID 0000.0001)                 9.998000000000000E+02
(PID.TID 0000.0001)     ;
(PID.TID 0000.0001) drC =   /* C spacing ( units of r ) */
(PID.TID 0000.0001)                 1.778230853257070E+00,      /* K =  1 */
(PID.TID 0000.0001)                 3.510074164864204E+00,      /* K =  2 */
(PID.TID 0000.0001)                 3.418509162930531E+00,      /* K =  3 */
(PID.TID 0000.0001)                 3.329332757130535E+00,      /* K =  4 */
(PID.TID 0000.0001)                 3.242482637723929E+00,      /* K =  5 */
(PID.TID 0000.0001)                 3.157898120403742E+00,      /* K =  6 */
(PID.TID 0000.0001)                 3.075520103894710E+00,      /* K =  7 */
(PID.TID 0000.0001)                 2.995291028657758E+00,      /* K =  8 */
(PID.TID 0000.0001)                 2.917154836671749E+00,      /* K =  9 */
(PID.TID 0000.0001)                 2.841056932264362E+00,      /* K = 10 */
(PID.TID 0000.0001)                 2.766944143964766E+00,      /* K = 11 */
(PID.TID 0000.0001)                 2.694764687351404E+00,      /* K = 12 */
(PID.TID 0000.0001)                 2.624468128868950E+00,      /* K = 13 */
(PID.TID 0000.0001)                 2.556005350589150E+00,      /* K = 14 */
(PID.TID 0000.0001)                 2.489328515890922E+00,      /* K = 15 */
(PID.TID 0000.0001)                 2.424391036035729E+00,      /* K = 16 */
(PID.TID 0000.0001)                 2.361147537614897E+00,      /* K = 17 */
(PID.TID 0000.0001)                 2.299553830846095E+00,      /* K = 18 */
(PID.TID 0000.0001)                 2.239566878696850E+00,      /* K = 19 */
(PID.TID 0000.0001)                 2.181144766813524E+00,      /* K = 20 */
(PID.TID 0000.0001)                 2.124246674234723E+00,      /* K = 21 */
(PID.TID 0000.0001)                 2.068832844868692E+00,      /* K = 22 */
(PID.TID 0000.0001)                 2.014864559714757E+00,      /* K = 23 */
(PID.TID 0000.0001)                 1.962304109809418E+00,      /* K = 24 */
(PID.TID 0000.0001)                 1.911114769878161E+00,      /* K = 25 */
(PID.TID 0000.0001)                 1.861260772674619E+00,      /* K = 26 */
(PID.TID 0000.0001)                 1.812707283989113E+00,      /* K = 27 */
(PID.TID 0000.0001)                 1.765420378309139E+00,      /* K = 28 */
(PID.TID 0000.0001)                 1.719367015114782E+00,      /* K = 29 */
(PID.TID 0000.0001)                 1.674515015792491E+00,      /* K = 30 */
(PID.TID 0000.0001)                 1.630833041151099E+00,      /* K = 31 */
(PID.TID 0000.0001)                 1.588290569524356E+00,      /* K = 32 */
(PID.TID 0000.0001)                 1.546857875444697E+00,      /* K = 33 */
(PID.TID 0000.0001)                 1.506506008873327E+00,      /* K = 34 */
(PID.TID 0000.0001)                 1.467206774972122E+00,      /* K = 35 */
(PID.TID 0000.0001)                 1.428932714403200E+00,      /* K = 36 */
(PID.TID 0000.0001)                 1.391657084142413E+00,      /* K = 37 */
(PID.TID 0000.0001)                 1.355353838793339E+00,      /* K = 38 */
(PID.TID 0000.0001)                 1.319997612388726E+00,      /* K = 39 */
(PID.TID 0000.0001)                 1.285563700666666E+00,      /* K = 40 */
(PID.TID 0000.0001)                 1.252028043809125E+00,      /* K = 41 */
(PID.TID 0000.0001)                 1.219367209630760E+00,      /* K = 42 */
(PID.TID 0000.0001)                 1.187558377206269E+00,      /* K = 43 */
(PID.TID 0000.0001)                 1.156579320924862E+00,      /* K = 44 */
(PID.TID 0000.0001)                 1.126408394960672E+00,      /* K = 45 */
(PID.TID 0000.0001)                 1.097024518148294E+00,      /* K = 46 */
(PID.TID 0000.0001)                 1.068407159252853E+00,      /* K = 47 */
(PID.TID 0000.0001)                 1.040536322624328E+00,      /* K = 48 */
(PID.TID 0000.0001)                 1.013392534226109E+00,      /* K = 49 */
(PID.TID 0000.0001)     3 @  1.000000000000000E+00,             /* K = 50: 52 */
(PID.TID 0000.0001)                 1.013392534226109E+00,      /* K = 53 */
(PID.TID 0000.0001)                 1.040536322624328E+00,      /* K = 54 */
(PID.TID 0000.0001)                 1.068407159252853E+00,      /* K = 55 */
(PID.TID 0000.0001)                 1.097024518148294E+00,      /* K = 56 */
(PID.TID 0000.0001)                 1.126408394960672E+00,      /* K = 57 */
(PID.TID 0000.0001)                 1.156579320924862E+00,      /* K = 58 */
(PID.TID 0000.0001)                 1.187558377206269E+00,      /* K = 59 */
(PID.TID 0000.0001)                 1.219367209630760E+00,      /* K = 60 */
(PID.TID 0000.0001)                 1.252028043809125E+00,      /* K = 61 */
(PID.TID 0000.0001)                 1.285563700666666E+00,      /* K = 62 */
(PID.TID 0000.0001)                 1.319997612388726E+00,      /* K = 63 */
(PID.TID 0000.0001)                 1.355353838793339E+00,      /* K = 64 */
(PID.TID 0000.0001)                 1.391657084142413E+00,      /* K = 65 */
(PID.TID 0000.0001)                 1.428932714403200E+00,      /* K = 66 */
(PID.TID 0000.0001)                 1.467206774972122E+00,      /* K = 67 */
(PID.TID 0000.0001)                 1.506506008873327E+00,      /* K = 68 */
(PID.TID 0000.0001)                 1.546857875444697E+00,      /* K = 69 */
(PID.TID 0000.0001)                 1.588290569524356E+00,      /* K = 70 */
(PID.TID 0000.0001)                 1.630833041151099E+00,      /* K = 71 */
(PID.TID 0000.0001)                 1.674515015792491E+00,      /* K = 72 */
(PID.TID 0000.0001)                 1.719367015114782E+00,      /* K = 73 */
(PID.TID 0000.0001)                 1.765420378309139E+00,      /* K = 74 */
(PID.TID 0000.0001)                 1.812707283989113E+00,      /* K = 75 */
(PID.TID 0000.0001)                 1.861260772674619E+00,      /* K = 76 */
(PID.TID 0000.0001)                 1.911114769878161E+00,      /* K = 77 */
(PID.TID 0000.0001)                 1.962304109809418E+00,      /* K = 78 */
(PID.TID 0000.0001)                 2.014864559714757E+00,      /* K = 79 */
(PID.TID 0000.0001)                 2.068832844868692E+00,      /* K = 80 */
(PID.TID 0000.0001)                 2.124246674234723E+00,      /* K = 81 */
(PID.TID 0000.0001)                 2.181144766813524E+00,      /* K = 82 */
(PID.TID 0000.0001)                 2.239566878696850E+00,      /* K = 83 */
(PID.TID 0000.0001)                 2.299553830846095E+00,      /* K = 84 */
(PID.TID 0000.0001)                 2.361147537614897E+00,      /* K = 85 */
(PID.TID 0000.0001)                 2.424391036035729E+00,      /* K = 86 */
(PID.TID 0000.0001)                 2.489328515890922E+00,      /* K = 87 */
(PID.TID 0000.0001)                 2.556005350589150E+00,      /* K = 88 */
(PID.TID 0000.0001)                 2.624468128868950E+00,      /* K = 89 */
(PID.TID 0000.0001)                 2.694764687351404E+00,      /* K = 90 */
(PID.TID 0000.0001)                 2.766944143964766E+00,      /* K = 91 */
(PID.TID 0000.0001)                 2.841056932264362E+00,      /* K = 92 */
(PID.TID 0000.0001)                 2.917154836671749E+00,      /* K = 93 */
(PID.TID 0000.0001)                 2.995291028657758E+00,      /* K = 94 */
(PID.TID 0000.0001)                 3.075520103894710E+00,      /* K = 95 */
(PID.TID 0000.0001)                 3.157898120403742E+00,      /* K = 96 */
(PID.TID 0000.0001)                 3.242482637723929E+00,      /* K = 97 */
(PID.TID 0000.0001)                 3.329332757130535E+00,      /* K = 98 */
(PID.TID 0000.0001)                 3.418509162930531E+00,      /* K = 99 */
(PID.TID 0000.0001)                 3.510074164864204E+00,      /* K =100 */
(PID.TID 0000.0001)                 1.778230853257070E+00       /* K =101 */
(PID.TID 0000.0001)     ;
(PID.TID 0000.0001) drF =   /* W spacing ( units of r ) */
(PID.TID 0000.0001)                 3.556461706514141E+00,      /* K =  1 */
(PID.TID 0000.0001)                 3.463686623214269E+00,      /* K =  2 */
(PID.TID 0000.0001)                 3.373331702646793E+00,      /* K =  3 */
(PID.TID 0000.0001)                 3.285333811614276E+00,      /* K =  4 */
(PID.TID 0000.0001)                 3.199631463833581E+00,      /* K =  5 */
(PID.TID 0000.0001)                 3.116164776973904E+00,      /* K =  6 */
(PID.TID 0000.0001)                 3.034875430815516E+00,      /* K =  7 */
(PID.TID 0000.0001)                 2.955706626500000E+00,      /* K =  8 */
(PID.TID 0000.0001)                 2.878603046843497E+00,      /* K =  9 */
(PID.TID 0000.0001)                 2.803510817685228E+00,      /* K = 10 */
(PID.TID 0000.0001)                 2.730377470244305E+00,      /* K = 11 */
(PID.TID 0000.0001)                 2.659151904458503E+00,      /* K = 12 */
(PID.TID 0000.0001)                 2.589784353279397E+00,      /* K = 13 */
(PID.TID 0000.0001)                 2.522226347898904E+00,      /* K = 14 */
(PID.TID 0000.0001)                 2.456430683882939E+00,      /* K = 15 */
(PID.TID 0000.0001)                 2.392351388188520E+00,      /* K = 16 */
(PID.TID 0000.0001)                 2.329943687041276E+00,      /* K = 17 */
(PID.TID 0000.0001)                 2.269163974650914E+00,      /* K = 18 */
(PID.TID 0000.0001)                 2.209969782742786E+00,      /* K = 19 */
(PID.TID 0000.0001)                 2.152319750884263E+00,      /* K = 20 */
(PID.TID 0000.0001)                 2.096173597585184E+00,      /* K = 21 */
(PID.TID 0000.0001)                 2.041492092152199E+00,      /* K = 22 */
(PID.TID 0000.0001)                 1.988237027277316E+00,      /* K = 23 */
(PID.TID 0000.0001)                 1.936371192341520E+00,      /* K = 24 */
(PID.TID 0000.0001)                 1.885858347414803E+00,      /* K = 25 */
(PID.TID 0000.0001)                 1.836663197934435E+00,      /* K = 26 */
(PID.TID 0000.0001)                 1.788751370043790E+00,      /* K = 27 */
(PID.TID 0000.0001)                 1.742089386574488E+00,      /* K = 28 */
(PID.TID 0000.0001)                 1.696644643655076E+00,      /* K = 29 */
(PID.TID 0000.0001)                 1.652385387929906E+00,      /* K = 30 */
(PID.TID 0000.0001)                 1.609280694372291E+00,      /* K = 31 */
(PID.TID 0000.0001)                 1.567300444676421E+00,      /* K = 32 */
(PID.TID 0000.0001)                 1.526415306212973E+00,      /* K = 33 */
(PID.TID 0000.0001)                 1.486596711533682E+00,      /* K = 34 */
(PID.TID 0000.0001)                 1.447816838410562E+00,      /* K = 35 */
(PID.TID 0000.0001)                 1.410048590395838E+00,      /* K = 36 */
(PID.TID 0000.0001)                 1.373265577888988E+00,      /* K = 37 */
(PID.TID 0000.0001)                 1.337442099697690E+00,      /* K = 38 */
(PID.TID 0000.0001)                 1.302553125079761E+00,      /* K = 39 */
(PID.TID 0000.0001)                 1.268574276253570E+00,      /* K = 40 */
(PID.TID 0000.0001)                 1.235481811364681E+00,      /* K = 41 */
(PID.TID 0000.0001)                 1.203252607896838E+00,      /* K = 42 */
(PID.TID 0000.0001)                 1.171864146515700E+00,      /* K = 43 */
(PID.TID 0000.0001)                 1.141294495334024E+00,      /* K = 44 */
(PID.TID 0000.0001)                 1.111522294587321E+00,      /* K = 45 */
(PID.TID 0000.0001)                 1.082526741709268E+00,      /* K = 46 */
(PID.TID 0000.0001)                 1.054287576796438E+00,      /* K = 47 */
(PID.TID 0000.0001)                 1.026785068452217E+00,      /* K = 48 */
(PID.TID 0000.0001)     4 @  1.000000000000000E+00,             /* K = 49: 52 */
(PID.TID 0000.0001)                 1.026785068452217E+00,      /* K = 53 */
(PID.TID 0000.0001)                 1.054287576796438E+00,      /* K = 54 */
(PID.TID 0000.0001)                 1.082526741709268E+00,      /* K = 55 */
(PID.TID 0000.0001)                 1.111522294587321E+00,      /* K = 56 */
(PID.TID 0000.0001)                 1.141294495334024E+00,      /* K = 57 */
(PID.TID 0000.0001)                 1.171864146515700E+00,      /* K = 58 */
(PID.TID 0000.0001)                 1.203252607896838E+00,      /* K = 59 */
(PID.TID 0000.0001)                 1.235481811364681E+00,      /* K = 60 */
(PID.TID 0000.0001)                 1.268574276253570E+00,      /* K = 61 */
(PID.TID 0000.0001)                 1.302553125079761E+00,      /* K = 62 */
(PID.TID 0000.0001)                 1.337442099697690E+00,      /* K = 63 */
(PID.TID 0000.0001)                 1.373265577888988E+00,      /* K = 64 */
(PID.TID 0000.0001)                 1.410048590395838E+00,      /* K = 65 */
(PID.TID 0000.0001)                 1.447816838410562E+00,      /* K = 66 */
(PID.TID 0000.0001)                 1.486596711533682E+00,      /* K = 67 */
(PID.TID 0000.0001)                 1.526415306212973E+00,      /* K = 68 */
(PID.TID 0000.0001)                 1.567300444676421E+00,      /* K = 69 */
(PID.TID 0000.0001)                 1.609280694372291E+00,      /* K = 70 */
(PID.TID 0000.0001)                 1.652385387929906E+00,      /* K = 71 */
(PID.TID 0000.0001)                 1.696644643655076E+00,      /* K = 72 */
(PID.TID 0000.0001)                 1.742089386574488E+00,      /* K = 73 */
(PID.TID 0000.0001)                 1.788751370043790E+00,      /* K = 74 */
(PID.TID 0000.0001)                 1.836663197934435E+00,      /* K = 75 */
(PID.TID 0000.0001)                 1.885858347414803E+00,      /* K = 76 */
(PID.TID 0000.0001)                 1.936371192341520E+00,      /* K = 77 */
(PID.TID 0000.0001)                 1.988237027277316E+00,      /* K = 78 */
(PID.TID 0000.0001)                 2.041492092152199E+00,      /* K = 79 */
(PID.TID 0000.0001)                 2.096173597585184E+00,      /* K = 80 */
(PID.TID 0000.0001)                 2.152319750884263E+00,      /* K = 81 */
(PID.TID 0000.0001)                 2.209969782742786E+00,      /* K = 82 */
(PID.TID 0000.0001)                 2.269163974650914E+00,      /* K = 83 */
(PID.TID 0000.0001)                 2.329943687041276E+00,      /* K = 84 */
(PID.TID 0000.0001)                 2.392351388188520E+00,      /* K = 85 */
(PID.TID 0000.0001)                 2.456430683882939E+00,      /* K = 86 */
(PID.TID 0000.0001)                 2.522226347898904E+00,      /* K = 87 */
(PID.TID 0000.0001)                 2.589784353279397E+00,      /* K = 88 */
(PID.TID 0000.0001)                 2.659151904458503E+00,      /* K = 89 */
(PID.TID 0000.0001)                 2.730377470244305E+00,      /* K = 90 */
(PID.TID 0000.0001)                 2.803510817685228E+00,      /* K = 91 */
(PID.TID 0000.0001)                 2.878603046843497E+00,      /* K = 92 */
(PID.TID 0000.0001)                 2.955706626500000E+00,      /* K = 93 */
(PID.TID 0000.0001)                 3.034875430815516E+00,      /* K = 94 */
(PID.TID 0000.0001)                 3.116164776973904E+00,      /* K = 95 */
(PID.TID 0000.0001)                 3.199631463833581E+00,      /* K = 96 */
(PID.TID 0000.0001)                 3.285333811614276E+00,      /* K = 97 */
(PID.TID 0000.0001)                 3.373331702646793E+00,      /* K = 98 */
(PID.TID 0000.0001)                 3.463686623214269E+00,      /* K = 99 */
(PID.TID 0000.0001)                 3.556461706514141E+00       /* K =100 */
(PID.TID 0000.0001)     ;
(PID.TID 0000.0001) delX = /* U spacing ( m - cartesian, degrees - spherical ) */
(PID.TID 0000.0001)                 1.263294638016668E+03,      /* I =  1 */
(PID.TID 0000.0001)                 1.237496063806571E+03,      /* I =  2 */
(PID.TID 0000.0001)                 1.212224339320398E+03,      /* I =  3 */
(PID.TID 0000.0001)      . . .
(PID.TID 0000.0001)                 4.790113490274632E+02,      /* I = 48 */
(PID.TID 0000.0001)                 4.692291418815790E+02,      /* I = 49 */
(PID.TID 0000.0001)                 4.596467036489769E+02,      /* I = 50 */
(PID.TID 0000.0001)                 4.502599547167311E+02,      /* I = 51 */
(PID.TID 0000.0001)                 4.410648987843862E+02,      /* I = 52 */
(PID.TID 0000.0001)                 4.320576211625778E+02,      /* I = 53 */
(PID.TID 0000.0001)      . . .
(PID.TID 0000.0001)                 2.000000000000000E+02,      /* I = 98 */
(PID.TID 0000.0001)                 2.000000000000000E+02,      /* I = 99 */
(PID.TID 0000.0001)                 2.000000000000000E+02,      /* I =100 */
(PID.TID 0000.0001)                 2.000000000000000E+02,      /* I =101 */
(PID.TID 0000.0001)                 2.000000000000000E+02,      /* I =102 */
(PID.TID 0000.0001)                 2.000000000000000E+02,      /* I =103 */
(PID.TID 0000.0001)      . . .
(PID.TID 0000.0001)                 3.612641354876311E+02,      /* I =148 */
(PID.TID 0000.0001)                 3.687955530665730E+02,      /* I =149 */
(PID.TID 0000.0001)                 3.764839811128614E+02,      /* I =150 */
(PID.TID 0000.0001)                 3.843326928863569E+02,      /* I =151 */
(PID.TID 0000.0001)                 3.923450298858749E+02,      /* I =152 */
(PID.TID 0000.0001)                 4.005244032717896E+02,      /* I =153 */
(PID.TID 0000.0001)      . . .
(PID.TID 0000.0001)                 1.013599012055986E+03,      /* I =198 */
(PID.TID 0000.0001)                 1.034729915092050E+03,      /* I =199 */
(PID.TID 0000.0001)                 1.056301342495056E+03       /* I =200 */
(PID.TID 0000.0001)     ;
(PID.TID 0000.0001) delY = /* V spacing ( m - cartesian, degrees - spherical ) */
(PID.TID 0000.0001)                 5.000000000000000E+03       /* J =  1 */
(PID.TID 0000.0001)     ;
(PID.TID 0000.0001) xgOrigin = /* X-axis origin of West  edge (cartesian: m, lat-lon: deg) */
(PID.TID 0000.0001)                 0.000000000000000E+00
(PID.TID 0000.0001)     ;
(PID.TID 0000.0001) ygOrigin = /* Y-axis origin of South edge (cartesian: m, lat-lon: deg) */
(PID.TID 0000.0001)                 0.000000000000000E+00
(PID.TID 0000.0001)     ;
(PID.TID 0000.0001) rSphere =  /* Radius ( ignored - cartesian, m - spherical ) */
(PID.TID 0000.0001)                 6.370000000000000E+06
(PID.TID 0000.0001)     ;
(PID.TID 0000.0001) deepAtmosphere = /* Deep/Shallow Atmosphere flag (True/False) */
(PID.TID 0000.0001)                   F
(PID.TID 0000.0001)     ;
(PID.TID 0000.0001) xC =  /* xC(:,1,:,1) : P-point X coord ( deg. or m if cartesian) */
(PID.TID 0000.0001)                 6.316473190083342E+02,      /* I =  1 */
(PID.TID 0000.0001)                 1.882042669919954E+03,      /* I =  2 */
[...]
 cg2d: Sum(rhs),rhsMax =                    NaN  0.00000000000000E+00
 cg2d: Sum(rhs),rhsMax =                    NaN  0.00000000000000E+00
 cg2d: Sum(rhs),rhsMax =                    NaN  0.00000000000000E+00
 cg2d: Sum(rhs),rhsMax =                    NaN  0.00000000000000E+00
 cg2d: Sum(rhs),rhsMax =                    NaN  0.00000000000000E+00
 cg2d: Sum(rhs),rhsMax =                    NaN  0.00000000000000E+00
 cg2d: Sum(rhs),rhsMax =                    NaN  0.00000000000000E+00
 cg2d: Sum(rhs),rhsMax =                    NaN  0.00000000000000E+00
 cg2d: Sum(rhs),rhsMax =                    NaN  0.00000000000000E+00
 cg2d: Sum(rhs),rhsMax =                    NaN  0.00000000000000E+00
 cg2d: Sum(rhs),rhsMax =                    NaN  0.00000000000000E+00
 cg2d: Sum(rhs),rhsMax =                    NaN  0.00000000000000E+00
 cg2d: Sum(rhs),rhsMax =                    NaN  0.00000000000000E+00
 cg2d: Sum(rhs),rhsMax =                    NaN  0.00000000000000E+00
 cg2d: Sum(rhs),rhsMax =                    NaN  0.00000000000000E+00
 cg2d: Sum(rhs),rhsMax =                    NaN  0.00000000000000E+00
 cg2d: Sum(rhs),rhsMax =                    NaN  0.00000000000000E+00
 cg2d: Sum(rhs),rhsMax =                    NaN  0.00000000000000E+00
 cg2d: Sum(rhs),rhsMax =                    NaN  0.00000000000000E+00
 cg2d: Sum(rhs),rhsMax =                    NaN  0.00000000000000E+00
 cg2d: Sum(rhs),rhsMax =                    NaN  0.00000000000000E+00
 cg2d: Sum(rhs),rhsMax =                    NaN  0.00000000000000E+00
 cg2d: Sum(rhs),rhsMax =                    NaN  0.00000000000000E+00
 cg2d: Sum(rhs),rhsMax =                    NaN  0.00000000000000E+00
 cg2d: Sum(rhs),rhsMax =                    NaN  0.00000000000000E+00
 cg2d: Sum(rhs),rhsMax =                    NaN  0.00000000000000E+00
 cg2d: Sum(rhs),rhsMax =                    NaN  0.00000000000000E+00
 cg2d: Sum(rhs),rhsMax =                    NaN  0.00000000000000E+00
 cg2d: Sum(rhs),rhsMax =                    NaN  0.00000000000000E+00
 cg2d: Sum(rhs),rhsMax =                    NaN  0.00000000000000E+00
 cg2d: Sum(rhs),rhsMax =                    NaN  0.00000000000000E+00
 cg2d: Sum(rhs),rhsMax =                    NaN  0.00000000000000E+00
 cg2d: Sum(rhs),rhsMax =                    NaN  0.00000000000000E+00
 cg2d: Sum(rhs),rhsMax =                    NaN  0.00000000000000E+00
(PID.TID 0000.0001)      cg2d_init_res =                    NaN
(PID.TID 0000.0001)      cg2d_iters(min,last) =      -1    1000
(PID.TID 0000.0001)      cg2d_last_res =                    NaN
(PID.TID 0000.0001) // =======================================================
(PID.TID 0000.0001) // Begin MONITOR dynamic field statistics
(PID.TID 0000.0001) // =======================================================
(PID.TID 0000.0001) %MON time_tsnumber                =                  7200
(PID.TID 0000.0001) %MON time_secondsf                =   1.0800000000000E+05
(PID.TID 0000.0001) %MON dynstat_eta_max              =                   NaN
(PID.TID 0000.0001) %MON dynstat_eta_min              =                   NaN
(PID.TID 0000.0001) %MON dynstat_eta_mean             =                   NaN
(PID.TID 0000.0001) %MON dynstat_eta_sd               =                   NaN
(PID.TID 0000.0001) %MON dynstat_eta_del2             =                   NaN
(PID.TID 0000.0001) %MON dynstat_uvel_max             =   5.6028564143658E-01
(PID.TID 0000.0001) %MON dynstat_uvel_min             =   5.6028564143658E-01
(PID.TID 0000.0001) %MON dynstat_uvel_mean            =                   NaN
(PID.TID 0000.0001) %MON dynstat_uvel_sd              =                   NaN
(PID.TID 0000.0001) %MON dynstat_uvel_del2            =                   NaN
(PID.TID 0000.0001) %MON dynstat_vvel_max             =                   NaN
(PID.TID 0000.0001) %MON dynstat_vvel_min             =                   NaN
(PID.TID 0000.0001) %MON dynstat_vvel_mean            =                   NaN
(PID.TID 0000.0001) %MON dynstat_vvel_sd              =                   NaN
(PID.TID 0000.0001) %MON dynstat_vvel_del2            =                   NaN
(PID.TID 0000.0001) %MON dynstat_wvel_max             =                   NaN
(PID.TID 0000.0001) %MON dynstat_wvel_min             =                   NaN
(PID.TID 0000.0001) %MON dynstat_wvel_mean            =                   NaN
(PID.TID 0000.0001) %MON dynstat_wvel_sd              =                   NaN
(PID.TID 0000.0001) %MON dynstat_wvel_del2            =                   NaN
(PID.TID 0000.0001) %MON dynstat_theta_max            =                   NaN
(PID.TID 0000.0001) %MON dynstat_theta_min            =                   NaN
(PID.TID 0000.0001) %MON dynstat_theta_mean           =                   NaN
(PID.TID 0000.0001) %MON dynstat_theta_sd             =                   NaN
(PID.TID 0000.0001) %MON dynstat_theta_del2           =                   NaN
(PID.TID 0000.0001) %MON dynstat_salt_max             =   3.5000000000000E+01
(PID.TID 0000.0001) %MON dynstat_salt_min             =   3.5000000000000E+01
(PID.TID 0000.0001) %MON dynstat_salt_mean            =   3.5000000000000E+01
(PID.TID 0000.0001) %MON dynstat_salt_sd              =   3.9790393202566E-13
(PID.TID 0000.0001) %MON dynstat_salt_del2            =   0.0000000000000E+00
(PID.TID 0000.0001) %MON dynstat_sst_max              =                   NaN
(PID.TID 0000.0001) %MON dynstat_sst_min              =                   NaN
(PID.TID 0000.0001) %MON dynstat_sst_mean             =                   NaN
(PID.TID 0000.0001) %MON dynstat_sst_sd               =                   NaN
(PID.TID 0000.0001) %MON dynstat_sst_del2             =                   NaN
(PID.TID 0000.0001) %MON dynstat_sss_max              =   3.5000000000000E+01
(PID.TID 0000.0001) %MON dynstat_sss_min              =   3.5000000000000E+01
(PID.TID 0000.0001) %MON dynstat_sss_mean             =   3.5000000000000E+01
(PID.TID 0000.0001) %MON dynstat_sss_sd               =   5.6843418860808E-14
(PID.TID 0000.0001) %MON dynstat_sss_del2             =   0.0000000000000E+00
(PID.TID 0000.0001) %MON forcing_qnet_max             =   0.0000000000000E+00
(PID.TID 0000.0001) %MON forcing_qnet_min             =   0.0000000000000E+00
(PID.TID 0000.0001) %MON forcing_qnet_mean            =   0.0000000000000E+00
(PID.TID 0000.0001) %MON forcing_qnet_sd              =   0.0000000000000E+00
(PID.TID 0000.0001) %MON forcing_qnet_del2            =   0.0000000000000E+00
(PID.TID 0000.0001) %MON forcing_qsw_max              =   0.0000000000000E+00
(PID.TID 0000.0001) %MON forcing_qsw_min              =   0.0000000000000E+00
(PID.TID 0000.0001) %MON forcing_qsw_mean             =   0.0000000000000E+00
(PID.TID 0000.0001) %MON forcing_qsw_sd               =   0.0000000000000E+00
(PID.TID 0000.0001) %MON forcing_qsw_del2             =   0.0000000000000E+00
(PID.TID 0000.0001) %MON forcing_empmr_max            =   0.0000000000000E+00
(PID.TID 0000.0001) %MON forcing_empmr_min            =   0.0000000000000E+00
(PID.TID 0000.0001) %MON forcing_empmr_mean           =   0.0000000000000E+00
(PID.TID 0000.0001) %MON forcing_empmr_sd             =   0.0000000000000E+00
(PID.TID 0000.0001) %MON forcing_empmr_del2           =   0.0000000000000E+00
(PID.TID 0000.0001) %MON forcing_fu_max               =   0.0000000000000E+00
(PID.TID 0000.0001) %MON forcing_fu_min               =   0.0000000000000E+00
(PID.TID 0000.0001) %MON forcing_fu_mean              =   0.0000000000000E+00
(PID.TID 0000.0001) %MON forcing_fu_sd                =   0.0000000000000E+00
(PID.TID 0000.0001) %MON forcing_fu_del2              =   0.0000000000000E+00
(PID.TID 0000.0001) %MON forcing_fv_max               =   0.0000000000000E+00
(PID.TID 0000.0001) %MON forcing_fv_min               =   0.0000000000000E+00
(PID.TID 0000.0001) %MON forcing_fv_mean              =   0.0000000000000E+00
(PID.TID 0000.0001) %MON forcing_fv_sd                =   0.0000000000000E+00
(PID.TID 0000.0001) %MON forcing_fv_del2              =   0.0000000000000E+00
(PID.TID 0000.0001) %MON advcfl_uvel_max              =   8.0384112777411E-03
(PID.TID 0000.0001) %MON advcfl_vvel_max              =   0.0000000000000E+00
(PID.TID 0000.0001) %MON advcfl_wvel_max              =   0.0000000000000E+00
(PID.TID 0000.0001) %MON advcfl_W_hf_max              =   0.0000000000000E+00
(PID.TID 0000.0001) %MON pe_b_mean                    =                   NaN
(PID.TID 0000.0001) %MON ke_max                       =   0.0000000000000E+00
(PID.TID 0000.0001) %MON ke_mean                      =                   NaN
(PID.TID 0000.0001) %MON ke_vol                       =   9.5121673331316E+10
(PID.TID 0000.0001) %MON vort_r_min                   =   0.0000000000000E+00
(PID.TID 0000.0001) %MON vort_r_max                   =   0.0000000000000E+00
(PID.TID 0000.0001) %MON vort_a_mean                  =                   NaN
(PID.TID 0000.0001) %MON vort_a_sd                    =                   NaN
(PID.TID 0000.0001) %MON vort_p_mean                  =                   NaN
(PID.TID 0000.0001) %MON vort_p_sd                    =   0.0000000000000E+00
(PID.TID 0000.0001) %MON surfExpan_theta_mean         =                   NaN
(PID.TID 0000.0001) %MON surfExpan_salt_mean          =                   NaN
(PID.TID 0000.0001) // =======================================================
(PID.TID 0000.0001) // End MONITOR dynamic field statistics
(PID.TID 0000.0001) // =======================================================
(PID.TID 0000.0001) // =======================================================
(PID.TID 0000.0001) // Begin OBCS MONITOR field statistics
(PID.TID 0000.0001) // =======================================================
(PID.TID 0000.0001) %MON obc_E_uVel_max               =   5.6028564143658E-01
(PID.TID 0000.0001) %MON obc_E_uVel_min               =   5.6028564143658E-01
(PID.TID 0000.0001) %MON obc_E_uVel_mean              =   5.6028564143658E-01
(PID.TID 0000.0001) %MON obc_E_uVel_sd                =   7.4505805969238E-09
(PID.TID 0000.0001) %MON obc_E_uVel_Int               =   5.6028564143658E+05
(PID.TID 0000.0001) %MON obc_W_uVel_max               =   5.6028564143658E-01
(PID.TID 0000.0001) %MON obc_W_uVel_min               =   5.6028564143658E-01
(PID.TID 0000.0001) %MON obc_W_uVel_mean              =   5.6028564143658E-01
(PID.TID 0000.0001) %MON obc_W_uVel_sd                =   7.4505805969238E-09
(PID.TID 0000.0001) %MON obc_W_uVel_Int               =   5.6028564143658E+05
(PID.TID 0000.0001) // =======================================================
(PID.TID 0000.0001) // End OBCS MONITOR field statistics
(PID.TID 0000.0001) // =======================================================
(PID.TID 0000.0001) %CHECKPOINT      7200 0000007200
(PID.TID 0000.0001)   Seconds in section "ALL                    [THE_MODEL_MAIN]":
(PID.TID 0000.0001)           User time:   261.94999999999999
(PID.TID 0000.0001)         System time:  0.40000000000000002
(PID.TID 0000.0001)     Wall clock time:   263.26519203186035
(PID.TID 0000.0001)          No. starts:           1
(PID.TID 0000.0001)           No. stops:           1
(PID.TID 0000.0001)   Seconds in section "INITIALISE_FIXED       [THE_MODEL_MAIN]":
(PID.TID 0000.0001)           User time:   4.0000000000000001E-002
(PID.TID 0000.0001)         System time:   0.0000000000000000
(PID.TID 0000.0001)     Wall clock time:   7.7106952667236328E-002
(PID.TID 0000.0001)          No. starts:           1
(PID.TID 0000.0001)           No. stops:           1
(PID.TID 0000.0001)   Seconds in section "THE_MAIN_LOOP          [THE_MODEL_MAIN]":
(PID.TID 0000.0001)           User time:   261.90999999999997
(PID.TID 0000.0001)         System time:  0.40000000000000002
(PID.TID 0000.0001)     Wall clock time:   263.18805384635925
(PID.TID 0000.0001)          No. starts:           1
(PID.TID 0000.0001)           No. stops:           1
(PID.TID 0000.0001)   Seconds in section "INITIALISE_VARIA    [THE_MAIN_LOOP]":
(PID.TID 0000.0001)           User time:   1.9999999999999997E-002
(PID.TID 0000.0001)         System time:   0.0000000000000000
(PID.TID 0000.0001)     Wall clock time:   2.8764009475708008E-002
(PID.TID 0000.0001)          No. starts:           1
(PID.TID 0000.0001)           No. stops:           1
(PID.TID 0000.0001)   Seconds in section "MAIN LOOP           [THE_MAIN_LOOP]":
(PID.TID 0000.0001)           User time:   261.88999999999999
(PID.TID 0000.0001)         System time:  0.40000000000000002
(PID.TID 0000.0001)     Wall clock time:   263.15925812721252
(PID.TID 0000.0001)          No. starts:           1
(PID.TID 0000.0001)           No. stops:           1
(PID.TID 0000.0001)   Seconds in section "MAIN_DO_LOOP        [THE_MAIN_LOOP]":
(PID.TID 0000.0001)           User time:   261.81999999999437
(PID.TID 0000.0001)         System time:  0.40000000000000047
(PID.TID 0000.0001)     Wall clock time:   263.09355330467224
(PID.TID 0000.0001)          No. starts:        7200
(PID.TID 0000.0001)           No. stops:        7200
(PID.TID 0000.0001)   Seconds in section "FORWARD_STEP        [MAIN_DO_LOOP]":
(PID.TID 0000.0001)           User time:   261.68999999999426
(PID.TID 0000.0001)         System time:  0.40000000000000047
(PID.TID 0000.0001)     Wall clock time:   262.95999407768250
(PID.TID 0000.0001)          No. starts:        7200
(PID.TID 0000.0001)           No. stops:        7200
(PID.TID 0000.0001)   Seconds in section "LOAD_FIELDS_DRIVER  [FORWARD_STEP]":
(PID.TID 0000.0001)           User time:  0.17999999999994998
(PID.TID 0000.0001)         System time:   0.0000000000000000
(PID.TID 0000.0001)     Wall clock time:  0.20157313346862793
(PID.TID 0000.0001)          No. starts:        7200
(PID.TID 0000.0001)           No. stops:        7200
(PID.TID 0000.0001)   Seconds in section "EXTERNAL_FLDS_LOAD [LOAD_FLDS_DRIVER]":
(PID.TID 0000.0001)           User time:   9.9999999999909051E-002
(PID.TID 0000.0001)         System time:   0.0000000000000000
(PID.TID 0000.0001)     Wall clock time:   6.7349433898925781E-002
(PID.TID 0000.0001)          No. starts:        7200
(PID.TID 0000.0001)           No. stops:        7200
(PID.TID 0000.0001)   Seconds in section "DO_ATMOSPHERIC_PHYS [FORWARD_STEP]":
(PID.TID 0000.0001)           User time:   6.9999999999936335E-002
(PID.TID 0000.0001)         System time:   0.0000000000000000
(PID.TID 0000.0001)     Wall clock time:   6.7079544067382812E-002
(PID.TID 0000.0001)          No. starts:        7200
(PID.TID 0000.0001)           No. stops:        7200
(PID.TID 0000.0001)   Seconds in section "DO_OCEANIC_PHYS     [FORWARD_STEP]":
(PID.TID 0000.0001)           User time:   67.389999999982820
(PID.TID 0000.0001)         System time:  0.12000000000000000
(PID.TID 0000.0001)     Wall clock time:   67.644023418426514
(PID.TID 0000.0001)          No. starts:        7200
(PID.TID 0000.0001)           No. stops:        7200
(PID.TID 0000.0001)   Seconds in section "DYNAMICS            [FORWARD_STEP]":
(PID.TID 0000.0001)           User time:   89.409999999985871
(PID.TID 0000.0001)         System time:   9.0000000000000080E-002
(PID.TID 0000.0001)     Wall clock time:   89.464715003967285
(PID.TID 0000.0001)          No. starts:        7200
(PID.TID 0000.0001)           No. stops:        7200
(PID.TID 0000.0001)   Seconds in section "SOLVE_FOR_PRESSURE  [FORWARD_STEP]":
(PID.TID 0000.0001)           User time:   13.949999999995555
(PID.TID 0000.0001)         System time:   3.0000000000000027E-002
(PID.TID 0000.0001)     Wall clock time:   14.294053316116333
(PID.TID 0000.0001)          No. starts:        7200
(PID.TID 0000.0001)           No. stops:        7200
(PID.TID 0000.0001)   Seconds in section "MOM_CORRECTION_STEP [FORWARD_STEP]":
(PID.TID 0000.0001)           User time:   2.9799999999983129
(PID.TID 0000.0001)         System time:   0.0000000000000000
(PID.TID 0000.0001)     Wall clock time:   3.2717854976654053
(PID.TID 0000.0001)          No. starts:        7200
(PID.TID 0000.0001)           No. stops:        7200
(PID.TID 0000.0001)   Seconds in section "INTEGR_CONTINUITY   [FORWARD_STEP]":
(PID.TID 0000.0001)           User time:   1.6399999999992474
(PID.TID 0000.0001)         System time:   0.0000000000000000
(PID.TID 0000.0001)     Wall clock time:   1.6358857154846191
(PID.TID 0000.0001)          No. starts:        7200
(PID.TID 0000.0001)           No. stops:        7200
(PID.TID 0000.0001)   Seconds in section "BLOCKING_EXCHANGES  [FORWARD_STEP]":
(PID.TID 0000.0001)           User time:   8.9399999999915849
(PID.TID 0000.0001)         System time:   1.0000000000000009E-002
(PID.TID 0000.0001)     Wall clock time:   8.6412150859832764
(PID.TID 0000.0001)          No. starts:       14400
(PID.TID 0000.0001)           No. stops:       14400
(PID.TID 0000.0001)   Seconds in section "THERMODYNAMICS      [FORWARD_STEP]":
(PID.TID 0000.0001)           User time:   75.359999999983529
(PID.TID 0000.0001)         System time:   8.0000000000000016E-002
(PID.TID 0000.0001)     Wall clock time:   75.302874088287354
(PID.TID 0000.0001)          No. starts:        7200
(PID.TID 0000.0001)           No. stops:        7200
(PID.TID 0000.0001)   Seconds in section "TRC_CORRECTION_STEP [FORWARD_STEP]":
(PID.TID 0000.0001)           User time:   5.9999999999945430E-002
(PID.TID 0000.0001)         System time:   0.0000000000000000
(PID.TID 0000.0001)     Wall clock time:   6.8252563476562500E-002
(PID.TID 0000.0001)          No. starts:        7200
(PID.TID 0000.0001)           No. stops:        7200
(PID.TID 0000.0001)   Seconds in section "MONITOR             [FORWARD_STEP]":
(PID.TID 0000.0001)           User time:   8.9999999999918145E-002
(PID.TID 0000.0001)         System time:   0.0000000000000000
(PID.TID 0000.0001)     Wall clock time:  0.14165019989013672
(PID.TID 0000.0001)          No. starts:        7200
(PID.TID 0000.0001)           No. stops:        7200
(PID.TID 0000.0001)   Seconds in section "DO_THE_MODEL_IO     [FORWARD_STEP]":
(PID.TID 0000.0001)           User time:  0.24000000000000909
(PID.TID 0000.0001)         System time:   5.0000000000000044E-002
(PID.TID 0000.0001)     Wall clock time:   1.0137112140655518
(PID.TID 0000.0001)          No. starts:        7200
(PID.TID 0000.0001)           No. stops:        7200
(PID.TID 0000.0001)   Seconds in section "DO_WRITE_PICKUP     [FORWARD_STEP]":
(PID.TID 0000.0001)           User time:  0.13000000000010914
(PID.TID 0000.0001)         System time:   2.0000000000000018E-002
(PID.TID 0000.0001)     Wall clock time:  0.18987941741943359
(PID.TID 0000.0001)          No. starts:        7200
(PID.TID 0000.0001)           No. stops:        7200
(PID.TID 0000.0001) // ======================================================
(PID.TID 0000.0001) // Tile <-> Tile communication statistics
(PID.TID 0000.0001) // ======================================================
(PID.TID 0000.0001) // o Tile number: 000001
(PID.TID 0000.0001) //         No. X exchanges =              0
(PID.TID 0000.0001) //            Max. X spins =              0
(PID.TID 0000.0001) //            Min. X spins =     1000000000
(PID.TID 0000.0001) //          Total. X spins =              0
(PID.TID 0000.0001) //            Avg. X spins =       0.00E+00
(PID.TID 0000.0001) //         No. Y exchanges =              0
(PID.TID 0000.0001) //            Max. Y spins =              0
(PID.TID 0000.0001) //            Min. Y spins =     1000000000
(PID.TID 0000.0001) //          Total. Y spins =              0
(PID.TID 0000.0001) //            Avg. Y spins =       0.00E+00
(PID.TID 0000.0001) // o Thread number: 000001
(PID.TID 0000.0001) //            No. barriers =       23849814
(PID.TID 0000.0001) //      Max. barrier spins =              1
(PID.TID 0000.0001) //      Min. barrier spins =              1
(PID.TID 0000.0001) //     Total barrier spins =       23849814
(PID.TID 0000.0001) //      Avg. barrier spins =       1.00E+00
PROGRAM MAIN: Execution ended Normally
