(PID.TID 0000.0001) 
(PID.TID 0000.0001) // ======================================================
(PID.TID 0000.0001) //                      MITgcm UV
(PID.TID 0000.0001) //                      =========
(PID.TID 0000.0001) // ======================================================
(PID.TID 0000.0001) // execution environment starting up...
(PID.TID 0000.0001) 
(PID.TID 0000.0001) // MITgcmUV version:  checkpoint65d
(PID.TID 0000.0001) // Build user:        hugke729
(PID.TID 0000.0001) // Build host:        hugke729
(PID.TID 0000.0001) // Build date:        Mon Apr 10 14:21:54 PDT 2017
(PID.TID 0000.0001) 
(PID.TID 0000.0001) // =======================================================
(PID.TID 0000.0001) // Execution Environment parameter file "eedata"
(PID.TID 0000.0001) // =======================================================
(PID.TID 0000.0001) ># Example "eedata" file
(PID.TID 0000.0001) ># Lines beginning "#" are comments
(PID.TID 0000.0001) ># nTx - No. threads per process in X
(PID.TID 0000.0001) ># nTy - No. threads per process in Y
(PID.TID 0000.0001) > &EEPARMS
(PID.TID 0000.0001) > /
(PID.TID 0000.0001) ># Note: Some systems use & as the
(PID.TID 0000.0001) ># namelist terminator. Other systems
(PID.TID 0000.0001) ># use a / character (as shown here).
(PID.TID 0000.0001) 
(PID.TID 0000.0001) // =======================================================
(PID.TID 0000.0001) // Computational Grid Specification ( see files "SIZE.h" )
(PID.TID 0000.0001) //                                  ( and "eedata"       )
(PID.TID 0000.0001) // =======================================================
(PID.TID 0000.0001)      nPx =    1 ; /* No. processes in X */
(PID.TID 0000.0001)      nPy =    1 ; /* No. processes in Y */
(PID.TID 0000.0001)      nSx =    1 ; /* No. tiles in X per process */
(PID.TID 0000.0001)      nSy =    1 ; /* No. tiles in Y per process */
(PID.TID 0000.0001)      sNx =  200 ; /* Tile size in X */
(PID.TID 0000.0001)      sNy =    1 ; /* Tile size in Y */
(PID.TID 0000.0001)      OLx =    2 ; /* Tile overlap distance in X */
(PID.TID 0000.0001)      OLy =    2 ; /* Tile overlap distance in Y */
(PID.TID 0000.0001)      nTx =    1 ; /* No. threads in X per process */
(PID.TID 0000.0001)      nTy =    1 ; /* No. threads in Y per process */
(PID.TID 0000.0001)       Nr =  100 ; /* No. levels in the vertical   */
(PID.TID 0000.0001)       Nx =  200 ; /* Total domain size in X ( = nPx*nSx*sNx ) */
(PID.TID 0000.0001)       Ny =    1 ; /* Total domain size in Y ( = nPy*nSy*sNy ) */
(PID.TID 0000.0001)   nTiles =    1 ; /* Total no. tiles per process ( = nSx*nSy ) */
(PID.TID 0000.0001)   nProcs =    1 ; /* Total no. processes ( = nPx*nPy ) */
(PID.TID 0000.0001) nThreads =    1 ; /* Total no. threads per process ( = nTx*nTy ) */
(PID.TID 0000.0001) usingMPI =    F ; /* Flag used to control whether MPI is in use */
(PID.TID 0000.0001)                   /*  note: To execute a program with MPI calls */
(PID.TID 0000.0001)                   /*  it must be launched appropriately e.g     */
(PID.TID 0000.0001)                   /*  "mpirun -np 64 ......"                    */
(PID.TID 0000.0001) useCoupler=    F ;/* Flag used to control communications with   */
(PID.TID 0000.0001)                   /*  other model components, through a coupler */
(PID.TID 0000.0001) debugMode =    F ; /* print debug msg. (sequence of S/R calls)  */
(PID.TID 0000.0001) printMapIncludesZeros=    F ; /* print zeros in Std.Output maps */
(PID.TID 0000.0001) maxLengthPrt1D=   65 /* maxLength of 1D array printed to StdOut */
(PID.TID 0000.0001) 
(PID.TID 0000.0001) // ======================================================
(PID.TID 0000.0001) // Mapping of tiles to threads
(PID.TID 0000.0001) // ======================================================
(PID.TID 0000.0001) // -o- Thread   1, tiles (   1:   1,   1:   1)
(PID.TID 0000.0001) 
(PID.TID 0000.0001) // ======================================================
(PID.TID 0000.0001) // Tile <-> Tile connectvity table
(PID.TID 0000.0001) // ======================================================
(PID.TID 0000.0001) // Tile number: 000001 (process no. = 000000)
(PID.TID 0000.0001) //        WEST: Tile = 000001, Process = 000000, Comm = put
(PID.TID 0000.0001) //                bi = 000001, bj = 000001
(PID.TID 0000.0001) //        EAST: Tile = 000001, Process = 000000, Comm = put
(PID.TID 0000.0001) //                bi = 000001, bj = 000001
(PID.TID 0000.0001) //       SOUTH: Tile = 000001, Process = 000000, Comm = put
(PID.TID 0000.0001) //                bi = 000001, bj = 000001
(PID.TID 0000.0001) //       NORTH: Tile = 000001, Process = 000000, Comm = put
(PID.TID 0000.0001) //                bi = 000001, bj = 000001
(PID.TID 0000.0001) 
(PID.TID 0000.0001)  INI_PARMS: opening model parameter file "data"
(PID.TID 0000.0001)  OPEN_COPY_DATA_FILE: opening file data
(PID.TID 0000.0001) // =======================================================
(PID.TID 0000.0001) // Parameter file "data"
(PID.TID 0000.0001) // =======================================================
(PID.TID 0000.0001) ># ====================
(PID.TID 0000.0001) ># | Model parameters |
(PID.TID 0000.0001) ># ====================
(PID.TID 0000.0001) >#
(PID.TID 0000.0001) ># See src/ini_parms.F for possible parameters.
(PID.TID 0000.0001) >#
(PID.TID 0000.0001) ># Continuous equation parameters
(PID.TID 0000.0001) > &PARM01
(PID.TID 0000.0001) > tRefFile='Tref.bin'
(PID.TID 0000.0001) > sRef= 25*35.,
(PID.TID 0000.0001) > viscAz=1.E-5,
(PID.TID 0000.0001) > viscAh=1.E-4,
(PID.TID 0000.0001) > no_slip_sides=.FALSE.,
(PID.TID 0000.0001) > no_slip_bottom=.FALSE.,
(PID.TID 0000.0001) > viscA4=0.E12,
(PID.TID 0000.0001) > diffKhT=1.E-4,
(PID.TID 0000.0001) > diffKzT=1.E-5,
(PID.TID 0000.0001) > diffKhS=1.E3,
(PID.TID 0000.0001) > diffKzS=1.E-5,
(PID.TID 0000.0001) > f0=0.E-4,
(PID.TID 0000.0001) > beta=0.0E-11,
(PID.TID 0000.0001) > tAlpha=2.E-4,
(PID.TID 0000.0001) > sBeta =0.E-4,
(PID.TID 0000.0001) > gravity=9.81,
(PID.TID 0000.0001) > gBaro=9.81,
(PID.TID 0000.0001) > rigidLid=.FALSE.,
(PID.TID 0000.0001) > implicitFreeSurface=.TRUE.,
(PID.TID 0000.0001) > eosType='LINEAR',
(PID.TID 0000.0001) > nonHydrostatic=.FALSE.,
(PID.TID 0000.0001) > readBinaryPrec=64,
(PID.TID 0000.0001) > useSingleCpuIO=.TRUE.
(PID.TID 0000.0001) > writeBinaryPrec=64,
(PID.TID 0000.0001) > writeStatePrec=64,
(PID.TID 0000.0001) > saltStepping=.FALSE.,
(PID.TID 0000.0001) ># minimum cell fraction.  This reduces steppiness..
(PID.TID 0000.0001) >  hFacMin=0.1,
(PID.TID 0000.0001) >  exactConserv=.FALSE.,
(PID.TID 0000.0001) >  implicitDiffusion=.TRUE.
(PID.TID 0000.0001) >  implicitViscosity=.TRUE.
(PID.TID 0000.0001) ># Superbee on:
(PID.TID 0000.0001) > tempAdvScheme=77,
(PID.TID 0000.0001) > staggerTimeStep=.TRUE.,
(PID.TID 0000.0001) >/
(PID.TID 0000.0001) >
(PID.TID 0000.0001) ># Elliptic solver parameters
(PID.TID 0000.0001) > &PARM02
(PID.TID 0000.0001) > cg2dMaxIters=1000,
(PID.TID 0000.0001) > cg2dTargetResidual=1.E-13,
(PID.TID 0000.0001) > cg3dMaxIters=400,
(PID.TID 0000.0001) > cg3dTargetResidual=1.E-13,
(PID.TID 0000.0001) >/
(PID.TID 0000.0001) >
(PID.TID 0000.0001) ># Time stepping parameters
(PID.TID 0000.0001) > &PARM03
(PID.TID 0000.0001) > niter0=0,
(PID.TID 0000.0001) ># times are in s
(PID.TID 0000.0001) > startTime=0,
(PID.TID 0000.0001) > endTime=108000,
(PID.TID 0000.0001) > deltaT=15,
(PID.TID 0000.0001) > abEps=0.1,
(PID.TID 0000.0001) ># once per tide checkpoint...
(PID.TID 0000.0001) > pChkptFreq=21600,
(PID.TID 0000.0001) > chkptFreq=0.0,
(PID.TID 0000.0001) > dumpFreq=7200,
(PID.TID 0000.0001) > monitorFreq=7200,
(PID.TID 0000.0001) ># Forcing for boundary condition files
(PID.TID 0000.0001) > periodicExternalForcing=.FALSE.,
(PID.TID 0000.0001) >/
(PID.TID 0000.0001) >
(PID.TID 0000.0001) ># Gridding parameters
(PID.TID 0000.0001) > &PARM04
(PID.TID 0000.0001) > usingCartesianGrid=.TRUE.,
(PID.TID 0000.0001) > usingSphericalPolarGrid=.FALSE.,
(PID.TID 0000.0001) > delXfile='delXvar.bin',
(PID.TID 0000.0001) > delY=5.e3,
(PID.TID 0000.0001) > delRfile = 'delZvar.bin',
(PID.TID 0000.0001) >/
(PID.TID 0000.0001) >
(PID.TID 0000.0001) ># Input datasets
(PID.TID 0000.0001) > &PARM05
(PID.TID 0000.0001) > bathyFile='topo.bin',
(PID.TID 0000.0001) > hydrogThetaFile='T0.bin',
(PID.TID 0000.0001) > checkIniTemp=.FALSE.,
(PID.TID 0000.0001) > uVelInitFile='U0.bin',
(PID.TID 0000.0001) > /
(PID.TID 0000.0001) 
(PID.TID 0000.0001)  INI_PARMS ; starts to read PARM01
(PID.TID 0000.0001)  INI_PARMS ; read PARM01 : OK
(PID.TID 0000.0001)  INI_PARMS ; starts to read PARM02
(PID.TID 0000.0001)  INI_PARMS ; read PARM02 : OK
(PID.TID 0000.0001)  INI_PARMS ; starts to read PARM03
(PID.TID 0000.0001)  INI_PARMS ; read PARM03 : OK
(PID.TID 0000.0001)  INI_PARMS ; starts to read PARM04
(PID.TID 0000.0001)  INI_PARMS ; read PARM04 : OK
(PID.TID 0000.0001)  INI_PARMS ; starts to read PARM05
(PID.TID 0000.0001)  INI_PARMS ; read PARM05 : OK
(PID.TID 0000.0001)  INI_PARMS: finished reading file "data"
(PID.TID 0000.0001)  PACKAGES_BOOT: opening data.pkg
(PID.TID 0000.0001)  OPEN_COPY_DATA_FILE: opening file data.pkg
(PID.TID 0000.0001) // =======================================================
(PID.TID 0000.0001) // Parameter file "data.pkg"
(PID.TID 0000.0001) // =======================================================
(PID.TID 0000.0001) ># Packages
(PID.TID 0000.0001) > &PACKAGES
(PID.TID 0000.0001) > useOBCS=.TRUE.,
(PID.TID 0000.0001) > useKL10=.TRUE.,
(PID.TID 0000.0001) > useDIAGNOSTICS=.FALSE.,
(PID.TID 0000.0001) > useMNC=.FALSE.,
(PID.TID 0000.0001) > /
(PID.TID 0000.0001) 
(PID.TID 0000.0001)  PACKAGES_BOOT: finished reading data.pkg
(PID.TID 0000.0001)  PACKAGES_BOOT: On/Off package Summary
 --------  pkgs with a standard "usePKG" On/Off switch in "data.pkg":  --------
 pkg/obcs                 compiled   and   used ( useOBCS                  = T )
 pkg/kl10                 compiled   and   used ( useKL10                  = T )
 -------- pkgs without standard "usePKG" On/Off switch in "data.pkg":  --------
 pkg/generic_advdiff      compiled   and   used ( useGAD                   = T )
 pkg/mom_common           compiled   and   used ( momStepping              = T )
 pkg/mom_vecinv           compiled but not used ( +vectorInvariantMomentum = F )
 pkg/mom_fluxform         compiled   and   used ( & not vectorInvariantMom = T )
 pkg/monitor              compiled   and   used ( monitorFreq > 0.         = T )
 pkg/debug                compiled but not used ( debugMode                = F )
 pkg/rw                   compiled   and   used
 pkg/mdsio                compiled   and   used
(PID.TID 0000.0001)  PACKAGES_BOOT: End of package Summary
(PID.TID 0000.0001) 
(PID.TID 0000.0001)  OBCS_READPARMS: opening data.obcs
(PID.TID 0000.0001)  OPEN_COPY_DATA_FILE: opening file data.obcs
(PID.TID 0000.0001) // =======================================================
(PID.TID 0000.0001) // Parameter file "data.obcs"
(PID.TID 0000.0001) // =======================================================
(PID.TID 0000.0001) ># Open-boundaries
(PID.TID 0000.0001) > &OBCS_PARM01
(PID.TID 0000.0001) > OB_Iwest=1*1,
(PID.TID 0000.0001) > OB_Ieast=1*-1,
(PID.TID 0000.0001) > OB_Jnorth=100*0,
(PID.TID 0000.0001) > OB_Jsouth=100*0,
(PID.TID 0000.0001) > useOBCSsponge=.TRUE.,
(PID.TID 0000.0001) > OBEuFile='U_in.bin',
(PID.TID 0000.0001) > OBWuFile='U_in.bin',
(PID.TID 0000.0001) > OBEtFile='TE.bin',
(PID.TID 0000.0001) > OBWtFile='TW.bin',
(PID.TID 0000.0001) > useOBCSprescribe=.TRUE.,
(PID.TID 0000.0001) > /
(PID.TID 0000.0001) >
(PID.TID 0000.0001) ># Orlanski parameters
(PID.TID 0000.0001) > &OBCS_PARM02
(PID.TID 0000.0001) >/
(PID.TID 0000.0001) >
(PID.TID 0000.0001) ># Sponge layer parameters
(PID.TID 0000.0001) > &OBCS_PARM03
(PID.TID 0000.0001) > Urelaxobcsinner=1000.,
(PID.TID 0000.0001) > Urelaxobcsbound=100.,
(PID.TID 0000.0001) > Vrelaxobcsinner=1000.0,
(PID.TID 0000.0001) > Vrelaxobcsbound=100.0,
(PID.TID 0000.0001) > spongeThickness=10,
(PID.TID 0000.0001) > /
(PID.TID 0000.0001) 
(PID.TID 0000.0001)  OBCS_READPARMS: finished reading data.obcs
(PID.TID 0000.0001)  OB_indexUnset = /* unset OB index value (i.e. no OB) */
(PID.TID 0000.0001)                       0
(PID.TID 0000.0001)     ;
(PID.TID 0000.0001)  Northern OB global indices : OB_Jnorth =
(PID.TID 0000.0001)   200 @        0                            /* I =  1:200 */
(PID.TID 0000.0001)  Southern OB global indices : OB_Jsouth =
(PID.TID 0000.0001)   200 @        0                            /* I =  1:200 */
(PID.TID 0000.0001)  Eastern  OB global indices : OB_Ieast =
(PID.TID 0000.0001)                     200                     /* J =  1 */
(PID.TID 0000.0001)  Western  OB global indices : OB_Iwest =
(PID.TID 0000.0001)                       1                     /* J =  1 */
(PID.TID 0000.0001) 
(PID.TID 0000.0001)  KL10_READPARMS: opening data.kl10
(PID.TID 0000.0001)  OPEN_COPY_DATA_FILE: opening file data.kl10
(PID.TID 0000.0001) // =======================================================
(PID.TID 0000.0001) // Parameter file "data.kl10"
(PID.TID 0000.0001) // =======================================================
(PID.TID 0000.0001) ># =====================================================================
(PID.TID 0000.0001) ># | Parameters for Klymak and Legg (2010) vertical mixing scheme      |
(PID.TID 0000.0001) ># =====================================================================
(PID.TID 0000.0001) > &KL10_PARM01
(PID.TID 0000.0001) > KLwriteState=.TRUE.,
(PID.TID 0000.0001) >/
(PID.TID 0000.0001) 
(PID.TID 0000.0001)  KL10_READPARMS: finished reading data.kl10
(PID.TID 0000.0001) SET_PARMS: done
(PID.TID 0000.0001)  MDS_READVEC_LOC: open file: delXvar.bin
(PID.TID 0000.0001) S/R LOAD_GRID_SPACING: delX loaded from file: delXvar.bin
(PID.TID 0000.0001)  MDS_READVEC_LOC: open file: delZvar.bin
(PID.TID 0000.0001) S/R LOAD_GRID_SPACING: delR loaded from file: delZvar.bin
(PID.TID 0000.0001) Enter INI_VERTICAL_GRID: setInterFDr=    T ; setCenterDr=    F
(PID.TID 0000.0001) %MON XC_max                       =   9.9471849328752E+04
(PID.TID 0000.0001) %MON XC_min                       =   6.3164731900833E+02
(PID.TID 0000.0001) %MON XC_mean                      =   5.2906107272275E+04
(PID.TID 0000.0001) %MON XC_sd                        =   2.2139310392762E+04
(PID.TID 0000.0001) %MON XG_max                       =   9.8943698657505E+04
(PID.TID 0000.0001) %MON XG_min                       =   0.0000000000000E+00
(PID.TID 0000.0001) %MON XG_mean                      =   5.2656107272275E+04
(PID.TID 0000.0001) %MON XG_sd                        =   2.2172561685063E+04
(PID.TID 0000.0001) %MON DXC_max                      =   1.2503953509116E+03
(PID.TID 0000.0001) %MON DXC_min                      =   2.0000000000000E+02
(PID.TID 0000.0001) %MON DXC_mean                     =   5.0000000000000E+02
(PID.TID 0000.0001) %MON DXC_sd                       =   2.8531736750525E+02
(PID.TID 0000.0001) %MON DXF_max                      =   1.2632946380167E+03
(PID.TID 0000.0001) %MON DXF_min                      =   2.0000000000000E+02
(PID.TID 0000.0001) %MON DXF_mean                     =   5.0000000000000E+02
(PID.TID 0000.0001) %MON DXF_sd                       =   2.8547066202794E+02
(PID.TID 0000.0001) %MON DXG_max                      =   1.2632946380167E+03
(PID.TID 0000.0001) %MON DXG_min                      =   2.0000000000000E+02
(PID.TID 0000.0001) %MON DXG_mean                     =   5.0000000000000E+02
(PID.TID 0000.0001) %MON DXG_sd                       =   2.8547066202794E+02
(PID.TID 0000.0001) %MON DXV_max                      =   1.2503953509116E+03
(PID.TID 0000.0001) %MON DXV_min                      =   2.0000000000000E+02
(PID.TID 0000.0001) %MON DXV_mean                     =   5.0000000000000E+02
(PID.TID 0000.0001) %MON DXV_sd                       =   2.8531736750525E+02
(PID.TID 0000.0001) %MON YC_max                       =   2.5000000000000E+03
(PID.TID 0000.0001) %MON YC_min                       =   2.5000000000000E+03
(PID.TID 0000.0001) %MON YC_mean                      =   2.5000000000000E+03
(PID.TID 0000.0001) %MON YC_sd                        =   0.0000000000000E+00
(PID.TID 0000.0001) %MON YG_max                       =   0.0000000000000E+00
(PID.TID 0000.0001) %MON YG_min                       =   0.0000000000000E+00
(PID.TID 0000.0001) %MON YG_mean                      =   0.0000000000000E+00
(PID.TID 0000.0001) %MON YG_sd                        =   0.0000000000000E+00
(PID.TID 0000.0001) %MON DYC_max                      =   5.0000000000000E+03
(PID.TID 0000.0001) %MON DYC_min                      =   5.0000000000000E+03
(PID.TID 0000.0001) %MON DYC_mean                     =   5.0000000000000E+03
(PID.TID 0000.0001) %MON DYC_sd                       =   0.0000000000000E+00
(PID.TID 0000.0001) %MON DYF_max                      =   5.0000000000000E+03
(PID.TID 0000.0001) %MON DYF_min                      =   5.0000000000000E+03
(PID.TID 0000.0001) %MON DYF_mean                     =   5.0000000000000E+03
(PID.TID 0000.0001) %MON DYF_sd                       =   0.0000000000000E+00
(PID.TID 0000.0001) %MON DYG_max                      =   5.0000000000000E+03
(PID.TID 0000.0001) %MON DYG_min                      =   5.0000000000000E+03
(PID.TID 0000.0001) %MON DYG_mean                     =   5.0000000000000E+03
(PID.TID 0000.0001) %MON DYG_sd                       =   0.0000000000000E+00
(PID.TID 0000.0001) %MON DYU_max                      =   5.0000000000000E+03
(PID.TID 0000.0001) %MON DYU_min                      =   5.0000000000000E+03
(PID.TID 0000.0001) %MON DYU_mean                     =   5.0000000000000E+03
(PID.TID 0000.0001) %MON DYU_sd                       =   0.0000000000000E+00
(PID.TID 0000.0001) %MON RA_max                       =   6.3164731900833E+06
(PID.TID 0000.0001) %MON RA_min                       =   1.0000000000000E+06
(PID.TID 0000.0001) %MON RA_mean                      =   2.5000000000000E+06
(PID.TID 0000.0001) %MON RA_sd                        =   1.4273533101397E+06
(PID.TID 0000.0001) %MON RAW_max                      =   6.2519767545581E+06
(PID.TID 0000.0001) %MON RAW_min                      =   1.0000000000000E+06
(PID.TID 0000.0001) %MON RAW_mean                     =   2.5000000000000E+06
(PID.TID 0000.0001) %MON RAW_sd                       =   1.4265868375263E+06
(PID.TID 0000.0001) %MON RAS_max                      =   6.3164731900833E+06
(PID.TID 0000.0001) %MON RAS_min                      =   1.0000000000000E+06
(PID.TID 0000.0001) %MON RAS_mean                     =   2.5000000000000E+06
(PID.TID 0000.0001) %MON RAS_sd                       =   1.4273533101397E+06
(PID.TID 0000.0001) %MON RAZ_max                      =   6.2519767545581E+06
(PID.TID 0000.0001) %MON RAZ_min                      =   1.0000000000000E+06
(PID.TID 0000.0001) %MON RAZ_mean                     =   2.5000000000000E+06
(PID.TID 0000.0001) %MON RAZ_sd                       =   1.4265868375263E+06
(PID.TID 0000.0001) %MON AngleCS_max                  =   1.0000000000000E+00
(PID.TID 0000.0001) %MON AngleCS_min                  =   1.0000000000000E+00
(PID.TID 0000.0001) %MON AngleCS_mean                 =   1.0000000000000E+00
(PID.TID 0000.0001) %MON AngleCS_sd                   =   0.0000000000000E+00
(PID.TID 0000.0001) %MON AngleSN_max                  =   0.0000000000000E+00
(PID.TID 0000.0001) %MON AngleSN_min                  =   0.0000000000000E+00
(PID.TID 0000.0001) %MON AngleSN_mean                 =   0.0000000000000E+00
(PID.TID 0000.0001) %MON AngleSN_sd                   =   0.0000000000000E+00
(PID.TID 0000.0001)  MDS_READVEC_LOC: open file: Tref.bin
(PID.TID 0000.0001) S/R LOAD_REF_FILES: tRef loaded from file: Tref.bin
(PID.TID 0000.0001)  MDS_READ_FIELD: opening global file: topo.bin
(PID.TID 0000.0001) // =======================================================
(PID.TID 0000.0001) // Field Model R_low (ini_masks_etc)
(PID.TID 0000.0001) // CMIN =         -1.995096555355117E+02
(PID.TID 0000.0001) // CMAX =         -8.001666550931283E+01
(PID.TID 0000.0001) // CINT =          4.425666297266623E+00
(PID.TID 0000.0001) // SYMBOLS (CMIN->CMAX): -abcdefghijklmnopqrstuvwxyz+
(PID.TID 0000.0001) //                  0.0: .
(PID.TID 0000.0001) // RANGE I (Lo:Hi:Step):(    -1:   202:     1)
(PID.TID 0000.0001) // RANGE J (Lo:Hi:Step):(     3:    -1:    -1)
(PID.TID 0000.0001) // RANGE K (Lo:Hi:Step):(   1:   1:   1)
(PID.TID 0000.0001) // =======================================================
(PID.TID 0000.0001) K =   1
(PID.TID 0000.0001) //                I=8       I=18      I=28      I=38      I=48      I=58      I=68      I=78      I=88      I=98      I=108     I=118     I=128     I=138     I=148     I=158     I=168     I=178     I=188     I=198
(PID.TID 0000.0001) // |--J--|101234567|901234567|901234567|901234567|901234567|901234567|901234567|901234567|901234567|901234567|901234567|901234567|901234567|901234567|901234567|901234567|901234567|901234567|901234567|901234567|9012
(PID.TID 0000.0001) //      3 -------------------aaaaaaaaaaaabbbbbbcccccddddeeefffgghhhiijjkkllmmnnoppqqrrssttuuvvwwxxxyyyzzzz++++++++++++zzzzyyyxxxwwvvuuttssrrqqpponnmmllkkjjiihhhggfffeeeddddcccccbbbbbbaaaaaaaaaaaa-------------------
(PID.TID 0000.0001) //      2 -------------------aaaaaaaaaaaabbbbbbcccccddddeeefffgghhhiijjkkllmmnnoppqqrrssttuuvvwwxxxyyyzzzz++++++++++++zzzzyyyxxxwwvvuuttssrrqqpponnmmllkkjjiihhhggfffeeeddddcccccbbbbbbaaaaaaaaaaaa-------------------
(PID.TID 0000.0001) //      1 -------------------aaaaaaaaaaaabbbbbbcccccddddeeefffgghhhiijjkkllmmnnoppqqrrssttuuvvwwxxxyyyzzzz++++++++++++zzzzyyyxxxwwvvuuttssrrqqpponnmmllkkjjiihhhggfffeeeddddcccccbbbbbbaaaaaaaaaaaa-------------------
(PID.TID 0000.0001) //      0 -------------------aaaaaaaaaaaabbbbbbcccccddddeeefffgghhhiijjkkllmmnnoppqqrrssttuuvvwwxxxyyyzzzz++++++++++++zzzzyyyxxxwwvvuuttssrrqqpponnmmllkkjjiihhhggfffeeeddddcccccbbbbbbaaaaaaaaaaaa-------------------
(PID.TID 0000.0001) //     -1 -------------------aaaaaaaaaaaabbbbbbcccccddddeeefffgghhhiijjkkllmmnnoppqqrrssttuuvvwwxxxyyyzzzz++++++++++++zzzzyyyxxxwwvvuuttssrrqqpponnmmllkkjjiihhhggfffeeeddddcccccbbbbbbaaaaaaaaaaaa-------------------
(PID.TID 0000.0001) // =======================================================
(PID.TID 0000.0001) // END OF FIELD                                          =
(PID.TID 0000.0001) // =======================================================
(PID.TID 0000.0001) 
(PID.TID 0000.0001) // =======================================================
(PID.TID 0000.0001) // Field Model Ro_surf (ini_masks_etc)
(PID.TID 0000.0001) // CMIN =          7.105427357601002E-15
(PID.TID 0000.0001) // CMAX =          1.207922650792170E-13
(PID.TID 0000.0001) // CINT =          4.210623619319112E-15
(PID.TID 0000.0001) // SYMBOLS (CMIN->CMAX): -abcdefghijklmnopqrstuvwxyz+
(PID.TID 0000.0001) //                  0.0: .
(PID.TID 0000.0001) // RANGE I (Lo:Hi:Step):(    -1:   202:     1)
(PID.TID 0000.0001) // RANGE J (Lo:Hi:Step):(     3:    -1:    -1)
(PID.TID 0000.0001) // RANGE K (Lo:Hi:Step):(   1:   1:   1)
(PID.TID 0000.0001) // =======================================================
(PID.TID 0000.0001) K =   1
(PID.TID 0000.0001) //                I=8       I=18      I=28      I=38      I=48      I=58      I=68      I=78      I=88      I=98      I=108     I=118     I=128     I=138     I=148     I=158     I=168     I=178     I=188     I=198
(PID.TID 0000.0001) // |--J--|101234567|901234567|901234567|901234567|901234567|901234567|901234567|901234567|901234567|901234567|901234567|901234567|901234567|901234567|901234567|901234567|901234567|901234567|901234567|901234567|9012
(PID.TID 0000.0001) //      3 ++++++++++++++++++++++++++++nnnnnnnnnnnnnnnnnnnn-ggggg-g--gggg---gngggggccgggccccggccccccccccccccccccccccccccccccccccccccggccccgggccgggggng---gggg--g-ggggg-nnnnnnnnnnnnnnnnnnnn++++++++++++++++++++++++++++
(PID.TID 0000.0001) //      2 ++++++++++++++++++++++++++++nnnnnnnnnnnnnnnnnnnn-ggggg-g--gggg---gngggggccgggccccggccccccccccccccccccccccccccccccccccccccggccccgggccgggggng---gggg--g-ggggg-nnnnnnnnnnnnnnnnnnnn++++++++++++++++++++++++++++
(PID.TID 0000.0001) //      1 ++++++++++++++++++++++++++++nnnnnnnnnnnnnnnnnnnn-ggggg-g--gggg---gngggggccgggccccggccccccccccccccccccccccccccccccccccccccggccccgggccgggggng---gggg--g-ggggg-nnnnnnnnnnnnnnnnnnnn++++++++++++++++++++++++++++
(PID.TID 0000.0001) //      0 ++++++++++++++++++++++++++++nnnnnnnnnnnnnnnnnnnn-ggggg-g--gggg---gngggggccgggccccggccccccccccccccccccccccccccccccccccccccggccccgggccgggggng---gggg--g-ggggg-nnnnnnnnnnnnnnnnnnnn++++++++++++++++++++++++++++
(PID.TID 0000.0001) //     -1 ++++++++++++++++++++++++++++nnnnnnnnnnnnnnnnnnnn-ggggg-g--gggg---gngggggccgggccccggccccccccccccccccccccccccccccccccccccccggccccgggccgggggng---gggg--g-ggggg-nnnnnnnnnnnnnnnnnnnn++++++++++++++++++++++++++++
(PID.TID 0000.0001) // =======================================================
(PID.TID 0000.0001) // END OF FIELD                                          =
(PID.TID 0000.0001) // =======================================================
(PID.TID 0000.0001) 
(PID.TID 0000.0001) // =======================================================
(PID.TID 0000.0001) // Field hFacC at iteration          0
(PID.TID 0000.0001) // CMIN =          1.000000000000000E+00
(PID.TID 0000.0001) // CMAX =          1.000000000000000E+00
(PID.TID 0000.0001) // CINT =          0.000000000000000E+00
(PID.TID 0000.0001) // SYMBOLS (CMIN->CMAX): -abcdefghijklmnopqrstuvwxyz+
(PID.TID 0000.0001) //                  0.0: .
(PID.TID 0000.0001) // RANGE I (Lo:Hi:Step):(    -1:   202:     1)
(PID.TID 0000.0001) // RANGE J (Lo:Hi:Step):(     3:    -1:    -1)
(PID.TID 0000.0001) // RANGE K (Lo:Hi:Step):(   1:   1:   1)
(PID.TID 0000.0001) // =======================================================
(PID.TID 0000.0001) // =======================================================
(PID.TID 0000.0001) // END OF FIELD                                          =
(PID.TID 0000.0001) // =======================================================
(PID.TID 0000.0001) 
(PID.TID 0000.0001) // =======================================================
(PID.TID 0000.0001) // Field hFacW at iteration          0
(PID.TID 0000.0001) // CMIN =          1.000000000000000E+00
(PID.TID 0000.0001) // CMAX =          1.000000000000000E+00
(PID.TID 0000.0001) // CINT =          0.000000000000000E+00
(PID.TID 0000.0001) // SYMBOLS (CMIN->CMAX): -abcdefghijklmnopqrstuvwxyz+
(PID.TID 0000.0001) //                  0.0: .
(PID.TID 0000.0001) // RANGE I (Lo:Hi:Step):(    -1:   202:     1)
(PID.TID 0000.0001) // RANGE J (Lo:Hi:Step):(     3:    -1:    -1)
(PID.TID 0000.0001) // RANGE K (Lo:Hi:Step):(   1:   1:   1)
(PID.TID 0000.0001) // =======================================================
(PID.TID 0000.0001) // =======================================================
(PID.TID 0000.0001) // END OF FIELD                                          =
(PID.TID 0000.0001) // =======================================================
(PID.TID 0000.0001) 
(PID.TID 0000.0001) // =======================================================
(PID.TID 0000.0001) // Field hFacS at iteration          0
(PID.TID 0000.0001) // CMIN =          1.000000000000000E+00
(PID.TID 0000.0001) // CMAX =          1.000000000000000E+00
(PID.TID 0000.0001) // CINT =          0.000000000000000E+00
(PID.TID 0000.0001) // SYMBOLS (CMIN->CMAX): -abcdefghijklmnopqrstuvwxyz+
(PID.TID 0000.0001) //                  0.0: .
(PID.TID 0000.0001) // RANGE I (Lo:Hi:Step):(    -1:   202:     1)
(PID.TID 0000.0001) // RANGE J (Lo:Hi:Step):(     3:    -1:    -1)
(PID.TID 0000.0001) // RANGE K (Lo:Hi:Step):(   1:   1:   1)
(PID.TID 0000.0001) // =======================================================
(PID.TID 0000.0001) // =======================================================
(PID.TID 0000.0001) // END OF FIELD                                          =
(PID.TID 0000.0001) // =======================================================
(PID.TID 0000.0001) 
(PID.TID 0000.0001) GAD_INIT_FIXED: GAD_OlMinSize=  2  0  1
(PID.TID 0000.0001) 
(PID.TID 0000.0001) // ===================================
(PID.TID 0000.0001) // GAD parameters :
(PID.TID 0000.0001) // ===================================
(PID.TID 0000.0001) tempAdvScheme =   /* Temp. Horiz.Advection scheme selector */
(PID.TID 0000.0001)                      77
(PID.TID 0000.0001)     ;
(PID.TID 0000.0001) tempVertAdvScheme =   /* Temp. Vert. Advection scheme selector */
(PID.TID 0000.0001)                      77
(PID.TID 0000.0001)     ;
(PID.TID 0000.0001) tempMultiDimAdvec =   /* use Muti-Dim Advec method for Temp */
(PID.TID 0000.0001)                   T
(PID.TID 0000.0001)     ;
(PID.TID 0000.0001) tempSOM_Advection = /* use 2nd Order Moment Advection for Temp */
(PID.TID 0000.0001)                   F
(PID.TID 0000.0001)     ;
(PID.TID 0000.0001) AdamsBashforthGt = /* apply Adams-Bashforth extrapolation on Gt */
(PID.TID 0000.0001)                   F
(PID.TID 0000.0001)     ;
(PID.TID 0000.0001) AdamsBashforth_T = /* apply Adams-Bashforth extrapolation on Temp */
(PID.TID 0000.0001)                   F
(PID.TID 0000.0001)     ;
(PID.TID 0000.0001) saltAdvScheme =   /* Salt. Horiz.advection scheme selector */
(PID.TID 0000.0001)                       2
(PID.TID 0000.0001)     ;
(PID.TID 0000.0001) saltVertAdvScheme =   /* Salt. Vert. Advection scheme selector */
(PID.TID 0000.0001)                       2
(PID.TID 0000.0001)     ;
(PID.TID 0000.0001) saltMultiDimAdvec =   /* use Muti-Dim Advec method for Salt */
(PID.TID 0000.0001)                   F
(PID.TID 0000.0001)     ;
(PID.TID 0000.0001) saltSOM_Advection = /* use 2nd Order Moment Advection for Salt */
(PID.TID 0000.0001)                   F
(PID.TID 0000.0001)     ;
(PID.TID 0000.0001) AdamsBashforthGs = /* apply Adams-Bashforth extrapolation on Gs */
(PID.TID 0000.0001)                   F
(PID.TID 0000.0001)     ;
(PID.TID 0000.0001) AdamsBashforth_S = /* apply Adams-Bashforth extrapolation on Salt */
(PID.TID 0000.0001)                   F
(PID.TID 0000.0001)     ;
(PID.TID 0000.0001) // ===================================
(PID.TID 0000.0001) %MON fCori_max                    =   0.0000000000000E+00
(PID.TID 0000.0001) %MON fCori_min                    =   0.0000000000000E+00
(PID.TID 0000.0001) %MON fCori_mean                   =   0.0000000000000E+00
(PID.TID 0000.0001) %MON fCori_sd                     =   0.0000000000000E+00
(PID.TID 0000.0001) %MON fCoriG_max                   =   0.0000000000000E+00
(PID.TID 0000.0001) %MON fCoriG_min                   =   0.0000000000000E+00
(PID.TID 0000.0001) %MON fCoriG_mean                  =   0.0000000000000E+00
(PID.TID 0000.0001) %MON fCoriG_sd                    =   0.0000000000000E+00
(PID.TID 0000.0001) %MON fCoriCos_max                 =   0.0000000000000E+00
(PID.TID 0000.0001) %MON fCoriCos_min                 =   0.0000000000000E+00
(PID.TID 0000.0001) %MON fCoriCos_mean                =   0.0000000000000E+00
(PID.TID 0000.0001) %MON fCoriCos_sd                  =   0.0000000000000E+00
(PID.TID 0000.0001) INI_CG2D: CG2D normalisation factor =  3.9831516982040139E-04
(PID.TID 0000.0001) 
(PID.TID 0000.0001) // =======================================================
(PID.TID 0000.0001) // Model configuration
(PID.TID 0000.0001) // =======================================================
(PID.TID 0000.0001) //
(PID.TID 0000.0001) // "Physical" paramters ( PARM01 in namelist )
(PID.TID 0000.0001) //
(PID.TID 0000.0001) buoyancyRelation = /* Type of relation to get Buoyancy */
(PID.TID 0000.0001)               'OCEANIC'
(PID.TID 0000.0001)     ;
(PID.TID 0000.0001) fluidIsAir   =  /* fluid major constituent is Air */
(PID.TID 0000.0001)                   F
(PID.TID 0000.0001)     ;
(PID.TID 0000.0001) fluidIsWater =  /* fluid major constituent is Water */
(PID.TID 0000.0001)                   T
(PID.TID 0000.0001)     ;
(PID.TID 0000.0001) usingPCoords =  /* use p (or p*) vertical coordinate */
(PID.TID 0000.0001)                   F
(PID.TID 0000.0001)     ;
(PID.TID 0000.0001) usingZCoords =  /* use z (or z*) vertical coordinate */
(PID.TID 0000.0001)                   T
(PID.TID 0000.0001)     ;
(PID.TID 0000.0001) tRef =   /* Reference temperature profile ( oC or K ) */
(PID.TID 0000.0001)                 1.497650238565370E+01,      /* K =  1 */
(PID.TID 0000.0001)                 1.470721590167325E+01,      /* K =  2 */
(PID.TID 0000.0001)                 1.349735867339025E+01,      /* K =  3 */
(PID.TID 0000.0001)                 1.150264132660976E+01,      /* K =  4 */
(PID.TID 0000.0001)                 1.029278409832675E+01,      /* K =  5 */
(PID.TID 0000.0001)                 1.002282846122323E+01,      /* K =  6 */
(PID.TID 0000.0001)                 1.000066915312308E+01,      /* K =  7 */
(PID.TID 0000.0001)    93 @  1.000000000000000E+01              /* K =  8:100 */
(PID.TID 0000.0001)     ;
(PID.TID 0000.0001) sRef =   /* Reference salinity profile ( psu ) */
(PID.TID 0000.0001)   100 @  3.500000000000000E+01              /* K =  1:100 */
(PID.TID 0000.0001)     ;
(PID.TID 0000.0001) useStrainTensionVisc= /* Use StrainTension Form of Viscous Operator */
(PID.TID 0000.0001)                   F
(PID.TID 0000.0001)     ;
(PID.TID 0000.0001) useVariableVisc = /* Use variable horizontal viscosity */
(PID.TID 0000.0001)                   F
(PID.TID 0000.0001)     ;
(PID.TID 0000.0001) useHarmonicVisc = /* Use harmonic horizontal viscosity */
(PID.TID 0000.0001)                   T
(PID.TID 0000.0001)     ;
(PID.TID 0000.0001) useBiharmonicVisc= /* Use biharmonic horiz.  viscosity */
(PID.TID 0000.0001)                   F
(PID.TID 0000.0001)     ;
(PID.TID 0000.0001) useSmag3D = /* Use isotropic 3-D Smagorinsky viscosity */
(PID.TID 0000.0001)                   F
(PID.TID 0000.0001)     ;
(PID.TID 0000.0001) viscAh  =   /* Lateral harmonic viscosity ( m^2/s ) */
(PID.TID 0000.0001)                 1.000000000000000E-04
(PID.TID 0000.0001)     ;
(PID.TID 0000.0001) viscA4  =   /* Lateral biharmonic viscosity ( m^4/s ) */
(PID.TID 0000.0001)                 0.000000000000000E+00
(PID.TID 0000.0001)     ;
(PID.TID 0000.0001) no_slip_sides =  /* Viscous BCs: No-slip sides */
(PID.TID 0000.0001)                   F
(PID.TID 0000.0001)     ;
(PID.TID 0000.0001) sideDragFactor = /* side-drag scaling factor (non-dim) */
(PID.TID 0000.0001)                 2.000000000000000E+00
(PID.TID 0000.0001)     ;
(PID.TID 0000.0001) viscArNr = /* vertical profile of vertical viscosity ( m^2/s )*/
(PID.TID 0000.0001)   100 @  1.000000000000000E-05              /* K =  1:100 */
(PID.TID 0000.0001)     ;
(PID.TID 0000.0001) no_slip_bottom =  /* Viscous BCs: No-slip bottom */
(PID.TID 0000.0001)                   F
(PID.TID 0000.0001)     ;
(PID.TID 0000.0001) bottomDragLinear = /* linear bottom-drag coefficient ( m/s ) */
(PID.TID 0000.0001)                 0.000000000000000E+00
(PID.TID 0000.0001)     ;
(PID.TID 0000.0001) bottomDragQuadratic = /* quadratic bottom-drag coefficient (-) */
(PID.TID 0000.0001)                 0.000000000000000E+00
(PID.TID 0000.0001)     ;
(PID.TID 0000.0001) diffKhT =   /* Laplacian diffusion of heat laterally ( m^2/s ) */
(PID.TID 0000.0001)                 1.000000000000000E-04
(PID.TID 0000.0001)     ;
(PID.TID 0000.0001) diffK4T =   /* Biharmonic diffusion of heat laterally ( m^4/s ) */
(PID.TID 0000.0001)                 0.000000000000000E+00
(PID.TID 0000.0001)     ;
(PID.TID 0000.0001) diffKhS =   /* Laplacian diffusion of salt laterally ( m^2/s ) */
(PID.TID 0000.0001)                 1.000000000000000E+03
(PID.TID 0000.0001)     ;
(PID.TID 0000.0001) diffK4S =   /* Biharmonic diffusion of salt laterally ( m^4/s ) */
(PID.TID 0000.0001)                 0.000000000000000E+00
(PID.TID 0000.0001)     ;
(PID.TID 0000.0001) diffKrNrT = /* vertical profile of vertical diffusion of Temp ( m^2/s )*/
(PID.TID 0000.0001)   100 @  1.000000000000000E-05              /* K =  1:100 */
(PID.TID 0000.0001)     ;
(PID.TID 0000.0001) diffKrNrS = /* vertical profile of vertical diffusion of Salt ( m^2/s )*/
(PID.TID 0000.0001)   100 @  1.000000000000000E-05              /* K =  1:100 */
(PID.TID 0000.0001)     ;
(PID.TID 0000.0001) diffKrBL79surf = /* Surface diffusion for Bryan and Lewis 79 ( m^2/s ) */
(PID.TID 0000.0001)                 0.000000000000000E+00
(PID.TID 0000.0001)     ;
(PID.TID 0000.0001) diffKrBL79deep = /* Deep diffusion for Bryan and Lewis 1979 ( m^2/s ) */
(PID.TID 0000.0001)                 0.000000000000000E+00
(PID.TID 0000.0001)     ;
(PID.TID 0000.0001) diffKrBL79scl = /* Depth scale for Bryan and Lewis 1979 ( m ) */
(PID.TID 0000.0001)                 2.000000000000000E+02
(PID.TID 0000.0001)     ;
(PID.TID 0000.0001) diffKrBL79Ho = /* Turning depth for Bryan and Lewis 1979 ( m ) */
(PID.TID 0000.0001)                -2.000000000000000E+03
(PID.TID 0000.0001)     ;
(PID.TID 0000.0001) ivdc_kappa = /* Implicit Vertical Diffusivity for Convection ( m^2/s) */
(PID.TID 0000.0001)                 0.000000000000000E+00
(PID.TID 0000.0001)     ;
(PID.TID 0000.0001) hMixCriteria=  /* Criteria for mixed-layer diagnostic */
(PID.TID 0000.0001)                -8.000000000000000E-01
(PID.TID 0000.0001)     ;
(PID.TID 0000.0001) dRhoSmall =  /* Parameter for mixed-layer diagnostic */
(PID.TID 0000.0001)                 1.000000000000000E-06
(PID.TID 0000.0001)     ;
(PID.TID 0000.0001) hMixSmooth=  /* Smoothing parameter for mixed-layer diagnostic */
(PID.TID 0000.0001)                 0.000000000000000E+00
(PID.TID 0000.0001)     ;
(PID.TID 0000.0001) eosType =  /* Type of Equation of State */
(PID.TID 0000.0001)               'LINEAR'
(PID.TID 0000.0001)     ;
(PID.TID 0000.0001) tAlpha = /* Linear EOS thermal expansion coefficient ( 1/oC ) */
(PID.TID 0000.0001)                 2.000000000000000E-04
(PID.TID 0000.0001)     ;
(PID.TID 0000.0001) sBeta  = /* Linear EOS haline contraction coefficient ( 1/psu ) */
(PID.TID 0000.0001)                 0.000000000000000E+00
(PID.TID 0000.0001)     ;
(PID.TID 0000.0001) rhoNil    = /* Reference density for Linear EOS ( kg/m^3 ) */
(PID.TID 0000.0001)                 9.998000000000000E+02
(PID.TID 0000.0001)     ;
(PID.TID 0000.0001) HeatCapacity_Cp =  /* Specific heat capacity ( J/kg/K ) */
(PID.TID 0000.0001)                 3.994000000000000E+03
(PID.TID 0000.0001)     ;
(PID.TID 0000.0001) celsius2K = /* 0 degree Celsius converted to Kelvin ( K ) */
(PID.TID 0000.0001)                 2.731500000000000E+02
(PID.TID 0000.0001)     ;
(PID.TID 0000.0001) rhoConst  = /* Reference density (Boussinesq)  ( kg/m^3 ) */
(PID.TID 0000.0001)                 9.998000000000000E+02
(PID.TID 0000.0001)     ;
(PID.TID 0000.0001) rhoFacC = /* normalized Reference density @ cell-Center (-) */
(PID.TID 0000.0001)   100 @  1.000000000000000E+00              /* K =  1:100 */
(PID.TID 0000.0001)     ;
(PID.TID 0000.0001) rhoFacF = /* normalized Reference density @ W-Interface (-) */
(PID.TID 0000.0001)   101 @  1.000000000000000E+00              /* K =  1:101 */
(PID.TID 0000.0001)     ;
(PID.TID 0000.0001) rhoConstFresh = /* Fresh-water reference density ( kg/m^3 ) */
(PID.TID 0000.0001)                 9.998000000000000E+02
(PID.TID 0000.0001)     ;
(PID.TID 0000.0001) gravity =   /* Gravitational acceleration ( m/s^2 ) */
(PID.TID 0000.0001)                 9.810000000000000E+00
(PID.TID 0000.0001)     ;
(PID.TID 0000.0001) gBaro =   /* Barotropic gravity ( m/s^2 ) */
(PID.TID 0000.0001)                 9.810000000000000E+00
(PID.TID 0000.0001)     ;
(PID.TID 0000.0001) rotationPeriod =   /* Rotation Period ( s ) */
(PID.TID 0000.0001)                 8.616400000000000E+04
(PID.TID 0000.0001)     ;
(PID.TID 0000.0001) omega =   /* Angular velocity ( rad/s ) */
(PID.TID 0000.0001)                 7.292123516990375E-05
(PID.TID 0000.0001)     ;
(PID.TID 0000.0001) f0 =   /* Reference coriolis parameter ( 1/s ) */
(PID.TID 0000.0001)                 0.000000000000000E+00
(PID.TID 0000.0001)     ;
(PID.TID 0000.0001) beta =   /* Beta ( 1/(m.s) ) */
(PID.TID 0000.0001)                 0.000000000000000E+00
(PID.TID 0000.0001)     ;
(PID.TID 0000.0001) fPrime =   /* Second coriolis parameter ( 1/s ) */
(PID.TID 0000.0001)                 0.000000000000000E+00
(PID.TID 0000.0001)     ;
(PID.TID 0000.0001) rigidLid =   /* Rigid lid on/off flag */
(PID.TID 0000.0001)                   F
(PID.TID 0000.0001)     ;
(PID.TID 0000.0001) implicitFreeSurface =   /* Implicit free surface on/off flag */
(PID.TID 0000.0001)                   T
(PID.TID 0000.0001)     ;
(PID.TID 0000.0001) freeSurfFac =   /* Implicit free surface factor */
(PID.TID 0000.0001)                 1.000000000000000E+00
(PID.TID 0000.0001)     ;
(PID.TID 0000.0001) implicSurfPress =  /* Surface Pressure implicit factor (0-1)*/
(PID.TID 0000.0001)                 1.000000000000000E+00
(PID.TID 0000.0001)     ;
(PID.TID 0000.0001) implicDiv2Dflow =  /* Barot. Flow Div. implicit factor (0-1)*/
(PID.TID 0000.0001)                 1.000000000000000E+00
(PID.TID 0000.0001)     ;
(PID.TID 0000.0001) uniformLin_PhiSurf = /* use uniform Bo_surf on/off flag*/
(PID.TID 0000.0001)                   T
(PID.TID 0000.0001)     ;
(PID.TID 0000.0001) uniformFreeSurfLev = /* free-surface level-index is uniform */
(PID.TID 0000.0001)                   T
(PID.TID 0000.0001)     ;
(PID.TID 0000.0001) hFacMin =   /* minimum partial cell factor (hFac) */
(PID.TID 0000.0001)                 1.000000000000000E-01
(PID.TID 0000.0001)     ;
(PID.TID 0000.0001) hFacMinDr = /* minimum partial cell thickness ( m) */
(PID.TID 0000.0001)                 0.000000000000000E+00
(PID.TID 0000.0001)     ;
(PID.TID 0000.0001) exactConserv =  /* Exact Volume Conservation on/off flag*/
(PID.TID 0000.0001)                   F
(PID.TID 0000.0001)     ;
(PID.TID 0000.0001) linFSConserveTr = /* Tracer correction for Lin Free Surface on/off flag*/
(PID.TID 0000.0001)                   F
(PID.TID 0000.0001)     ;
(PID.TID 0000.0001) nonlinFreeSurf = /* Non-linear Free Surf. options (-1,0,1,2,3)*/
(PID.TID 0000.0001)                       0
(PID.TID 0000.0001)      -1,0= Off ; 1,2,3= On, 2=+rescale gU,gV, 3=+update cg2d solv.
(PID.TID 0000.0001)     ;
(PID.TID 0000.0001) hFacInf =   /* lower threshold for hFac (nonlinFreeSurf only)*/
(PID.TID 0000.0001)                 2.000000000000000E-01
(PID.TID 0000.0001)     ;
(PID.TID 0000.0001) hFacSup =   /* upper threshold for hFac (nonlinFreeSurf only)*/
(PID.TID 0000.0001)                 2.000000000000000E+00
(PID.TID 0000.0001)     ;
(PID.TID 0000.0001) select_rStar = /* r* Vertical coord. options (=0 r coord.; >0 uses r*)*/
(PID.TID 0000.0001)                       0
(PID.TID 0000.0001)     ;
(PID.TID 0000.0001) useRealFreshWaterFlux = /* Real Fresh Water Flux on/off flag*/
(PID.TID 0000.0001)                   F
(PID.TID 0000.0001)     ;
(PID.TID 0000.0001) temp_EvPrRn = /* Temp. of Evap/Prec/R (UNSET=use local T)(oC)*/
(PID.TID 0000.0001)                 1.234567000000000E+05
(PID.TID 0000.0001)     ;
(PID.TID 0000.0001) salt_EvPrRn = /* Salin. of Evap/Prec/R (UNSET=use local S)(psu)*/
(PID.TID 0000.0001)                 0.000000000000000E+00
(PID.TID 0000.0001)     ;
(PID.TID 0000.0001) selectAddFluid = /* option for mass source/sink of fluid (=0: off) */
(PID.TID 0000.0001)                       0
(PID.TID 0000.0001)     ;
(PID.TID 0000.0001) temp_addMass = /* Temp. of addMass array (UNSET=use local T)(oC)*/
(PID.TID 0000.0001)                 1.234567000000000E+05
(PID.TID 0000.0001)     ;
(PID.TID 0000.0001) salt_addMass = /* Salin. of addMass array (UNSET=use local S)(psu)*/
(PID.TID 0000.0001)                 0.000000000000000E+00
(PID.TID 0000.0001)     ;
(PID.TID 0000.0001) convertFW2Salt = /* convert F.W. Flux to Salt Flux (-1=use local S)(psu)*/
(PID.TID 0000.0001)                 3.500000000000000E+01
(PID.TID 0000.0001)     ;
(PID.TID 0000.0001) use3Dsolver = /* use 3-D pressure solver on/off flag */
(PID.TID 0000.0001)                   F
(PID.TID 0000.0001)     ;
(PID.TID 0000.0001) nonHydrostatic =  /* Non-Hydrostatic on/off flag */
(PID.TID 0000.0001)                   F
(PID.TID 0000.0001)     ;
(PID.TID 0000.0001) nh_Am2 = /* Non-Hydrostatic terms scaling factor */
(PID.TID 0000.0001)                 1.000000000000000E+00
(PID.TID 0000.0001)     ;
(PID.TID 0000.0001) implicitNHPress = /* Non-Hyd Pressure implicit factor (0-1)*/
(PID.TID 0000.0001)                 1.000000000000000E+00
(PID.TID 0000.0001)     ;
(PID.TID 0000.0001) selectNHfreeSurf = /* Non-Hyd (free-)Surface option */
(PID.TID 0000.0001)                       0
(PID.TID 0000.0001)     ;
(PID.TID 0000.0001) quasiHydrostatic = /* Quasi-Hydrostatic on/off flag */
(PID.TID 0000.0001)                   F
(PID.TID 0000.0001)     ;
(PID.TID 0000.0001) calc_wVelocity = /* vertical velocity calculation on/off flag */
(PID.TID 0000.0001)                   T
(PID.TID 0000.0001)     ;
(PID.TID 0000.0001) momStepping =  /* Momentum equation on/off flag */
(PID.TID 0000.0001)                   T
(PID.TID 0000.0001)     ;
(PID.TID 0000.0001) vectorInvariantMomentum= /* Vector-Invariant Momentum on/off */
(PID.TID 0000.0001)                   F
(PID.TID 0000.0001)     ;
(PID.TID 0000.0001) momAdvection =  /* Momentum advection on/off flag */
(PID.TID 0000.0001)                   T
(PID.TID 0000.0001)     ;
(PID.TID 0000.0001) momViscosity =  /* Momentum viscosity on/off flag */
(PID.TID 0000.0001)                   T
(PID.TID 0000.0001)     ;
(PID.TID 0000.0001) momImplVertAdv= /* Momentum implicit vert. advection on/off*/
(PID.TID 0000.0001)                   F
(PID.TID 0000.0001)     ;
(PID.TID 0000.0001) implicitViscosity = /* Implicit viscosity on/off flag */
(PID.TID 0000.0001)                   T
(PID.TID 0000.0001)     ;
(PID.TID 0000.0001) metricTerms =  /* metric-Terms on/off flag */
(PID.TID 0000.0001)                   F
(PID.TID 0000.0001)     ;
(PID.TID 0000.0001) useNHMTerms = /* Non-Hydrostatic Metric-Terms on/off */
(PID.TID 0000.0001)                   F
(PID.TID 0000.0001)     ;
(PID.TID 0000.0001) selectCoriMap = /* Coriolis Map options (0,1,2,3)*/
(PID.TID 0000.0001)                       1
(PID.TID 0000.0001)     0= f-Plane ; 1= Beta-Plane ; 2= Spherical ; 3= read from file
(PID.TID 0000.0001)     ;
(PID.TID 0000.0001) use3dCoriolis = /* 3-D Coriolis on/off flag */
(PID.TID 0000.0001)                   F
(PID.TID 0000.0001)     ;
(PID.TID 0000.0001) useCoriolis =  /* Coriolis on/off flag */
(PID.TID 0000.0001)                   T
(PID.TID 0000.0001)     ;
(PID.TID 0000.0001) useCDscheme =  /* CD scheme on/off flag */
(PID.TID 0000.0001)                   F
(PID.TID 0000.0001)     ;
(PID.TID 0000.0001) useEnergyConservingCoriolis= /* Flx-Form Coriolis scheme flag */
(PID.TID 0000.0001)                   F
(PID.TID 0000.0001)     ;
(PID.TID 0000.0001) useJamartWetPoints= /* Coriolis WetPoints method flag */
(PID.TID 0000.0001)                   F
(PID.TID 0000.0001)     ;
(PID.TID 0000.0001) useJamartMomAdv= /* V.I Non-linear terms Jamart flag */
(PID.TID 0000.0001)                   F
(PID.TID 0000.0001)     ;
(PID.TID 0000.0001) useAbsVorticity= /* V.I Works with f+zeta in Coriolis */
(PID.TID 0000.0001)                   F
(PID.TID 0000.0001)     ;
(PID.TID 0000.0001) selectVortScheme= /* V.I Scheme selector for Vorticity-Term */
(PID.TID 0000.0001)               123456789
(PID.TID 0000.0001)    = 0 : enstrophy (Shallow-Water Eq.) conserving scheme by Sadourny, JAS 75
(PID.TID 0000.0001)    = 1 : same as 0 with modified hFac
(PID.TID 0000.0001)    = 2 : energy conserving scheme (used by Sadourny in JAS 75 paper)
(PID.TID 0000.0001)    = 3 : energy (general) and enstrophy (2D, nonDiv.) conserving scheme
(PID.TID 0000.0001)          from Sadourny (Burridge & Haseler, ECMWF Rep.4, 1977)
(PID.TID 0000.0001)     ;
(PID.TID 0000.0001) upwindVorticity= /* V.I Upwind bias vorticity flag */
(PID.TID 0000.0001)                   F
(PID.TID 0000.0001)     ;
(PID.TID 0000.0001) highOrderVorticity= /* V.I High order vort. advect. flag */
(PID.TID 0000.0001)                   F
(PID.TID 0000.0001)     ;
(PID.TID 0000.0001) upwindShear= /* V.I Upwind vertical Shear advection flag */
(PID.TID 0000.0001)                   F
(PID.TID 0000.0001)     ;
(PID.TID 0000.0001) selectKEscheme= /* V.I Kinetic Energy scheme selector */
(PID.TID 0000.0001)                       0
(PID.TID 0000.0001)     ;
(PID.TID 0000.0001) momForcing =  /* Momentum forcing on/off flag */
(PID.TID 0000.0001)                   T
(PID.TID 0000.0001)     ;
(PID.TID 0000.0001) momPressureForcing =  /* Momentum pressure term on/off flag */
(PID.TID 0000.0001)                   T
(PID.TID 0000.0001)     ;
(PID.TID 0000.0001) implicitIntGravWave= /* Implicit Internal Gravity Wave flag */
(PID.TID 0000.0001)                   F
(PID.TID 0000.0001)     ;
(PID.TID 0000.0001) staggerTimeStep =    /* Stagger time stepping on/off flag */
(PID.TID 0000.0001)                   T
(PID.TID 0000.0001)     ;
(PID.TID 0000.0001) doResetHFactors = /* reset thickness factors @ each time-step */
(PID.TID 0000.0001)                   F
(PID.TID 0000.0001)     ;
(PID.TID 0000.0001) multiDimAdvection =  /* enable/disable Multi-Dim Advection */
(PID.TID 0000.0001)                   T
(PID.TID 0000.0001)     ;
(PID.TID 0000.0001) useMultiDimAdvec =   /* Multi-Dim Advection is/is-not used */
(PID.TID 0000.0001)                   T
(PID.TID 0000.0001)     ;
(PID.TID 0000.0001) implicitDiffusion = /* Implicit Diffusion on/off flag */
(PID.TID 0000.0001)                   T
(PID.TID 0000.0001)     ;
(PID.TID 0000.0001) tempStepping =  /* Temperature equation on/off flag */
(PID.TID 0000.0001)                   T
(PID.TID 0000.0001)     ;
(PID.TID 0000.0001) tempAdvection = /* Temperature advection on/off flag */
(PID.TID 0000.0001)                   T
(PID.TID 0000.0001)     ;
(PID.TID 0000.0001) tempImplVertAdv = /* Temp. implicit vert. advection on/off */
(PID.TID 0000.0001)                   F
(PID.TID 0000.0001)     ;
(PID.TID 0000.0001) tempForcing  =  /* Temperature forcing on/off flag */
(PID.TID 0000.0001)                   T
(PID.TID 0000.0001)     ;
(PID.TID 0000.0001) doThetaClimRelax = /* apply SST relaxation on/off flag */
(PID.TID 0000.0001)                   F
(PID.TID 0000.0001)     ;
(PID.TID 0000.0001) tempIsActiveTr = /* Temp. is a dynamically Active Tracer */
(PID.TID 0000.0001)                   T
(PID.TID 0000.0001)     ;
(PID.TID 0000.0001) saltStepping =  /* Salinity equation on/off flag */
(PID.TID 0000.0001)                   F
(PID.TID 0000.0001)     ;
(PID.TID 0000.0001) saltAdvection = /* Salinity advection on/off flag */
(PID.TID 0000.0001)                   F
(PID.TID 0000.0001)     ;
(PID.TID 0000.0001) saltImplVertAdv = /* Sali. implicit vert. advection on/off */
(PID.TID 0000.0001)                   F
(PID.TID 0000.0001)     ;
(PID.TID 0000.0001) saltForcing  =  /* Salinity forcing on/off flag */
(PID.TID 0000.0001)                   F
(PID.TID 0000.0001)     ;
(PID.TID 0000.0001) doSaltClimRelax = /* apply SSS relaxation on/off flag */
(PID.TID 0000.0001)                   F
(PID.TID 0000.0001)     ;
(PID.TID 0000.0001) saltIsActiveTr = /* Salt  is a dynamically Active Tracer */
(PID.TID 0000.0001)                   F
(PID.TID 0000.0001)     ;
(PID.TID 0000.0001)  readBinaryPrec = /* Precision used for reading binary files */
(PID.TID 0000.0001)                      64
(PID.TID 0000.0001)     ;
(PID.TID 0000.0001) writeBinaryPrec = /* Precision used for writing binary files */
(PID.TID 0000.0001)                      64
(PID.TID 0000.0001)     ;
(PID.TID 0000.0001)  globalFiles = /* write "global" (=not per tile) files */
(PID.TID 0000.0001)                   F
(PID.TID 0000.0001)     ;
(PID.TID 0000.0001)  useSingleCpuIO = /* only master MPI process does I/O */
(PID.TID 0000.0001)                   T
(PID.TID 0000.0001)     ;
(PID.TID 0000.0001)  useSingleCpuInput = /* only master process reads input */
(PID.TID 0000.0001)                   T
(PID.TID 0000.0001)     ;
(PID.TID 0000.0001) /* debLev[*]  : level of debug & auxiliary message printing */
(PID.TID 0000.0001) debLevZero =  0 ; /* level of disabled aux. msg printing */
(PID.TID 0000.0001)    debLevA =  1 ; /* level of minimum  aux. msg printing */
(PID.TID 0000.0001)    debLevB =  2 ; /* level of low aux. print (report read-file opening)*/
(PID.TID 0000.0001)    debLevC =  3 ; /* level of moderate debug prt (most pkgs debug msg) */
(PID.TID 0000.0001)    debLevD =  4 ; /* level of enhanced debug prt (add DEBUG_STATS prt) */
(PID.TID 0000.0001)    debLevE =  5 ; /* level of extensive debug printing */
(PID.TID 0000.0001) debugLevel =  /* select debug printing level */
(PID.TID 0000.0001)                       2
(PID.TID 0000.0001)     ;
(PID.TID 0000.0001) //
(PID.TID 0000.0001) // Elliptic solver(s) paramters ( PARM02 in namelist )
(PID.TID 0000.0001) //
(PID.TID 0000.0001) cg2dMaxIters =   /* Upper limit on 2d con. grad iterations  */
(PID.TID 0000.0001)                    1000
(PID.TID 0000.0001)     ;
(PID.TID 0000.0001) cg2dChkResFreq =   /* 2d con. grad convergence test frequency */
(PID.TID 0000.0001)                       1
(PID.TID 0000.0001)     ;
(PID.TID 0000.0001) cg2dUseMinResSol= /* use cg2d last-iter(=0) / min-resid.(=1) solution */
(PID.TID 0000.0001)                       0
(PID.TID 0000.0001)     ;
(PID.TID 0000.0001) cg2dTargetResidual =   /* 2d con. grad target residual  */
(PID.TID 0000.0001)                 1.000000000000000E-13
(PID.TID 0000.0001)     ;
(PID.TID 0000.0001) cg2dTargetResWunit =   /* CG2d target residual [W units] */
(PID.TID 0000.0001)                -1.000000000000000E+00
(PID.TID 0000.0001)     ;
(PID.TID 0000.0001) cg2dPreCondFreq =   /* Freq. for updating cg2d preconditioner */
(PID.TID 0000.0001)                       1
(PID.TID 0000.0001)     ;
(PID.TID 0000.0001) useSRCGSolver =  /* use single reduction CG solver(s) */
(PID.TID 0000.0001)                   F
(PID.TID 0000.0001)     ;
(PID.TID 0000.0001) printResidualFreq = /* Freq. for printing CG residual */
(PID.TID 0000.0001)                       0
(PID.TID 0000.0001)     ;
(PID.TID 0000.0001) //
(PID.TID 0000.0001) // Time stepping paramters ( PARM03 in namelist )
(PID.TID 0000.0001) //
(PID.TID 0000.0001) deltaTMom =   /* Momentum equation timestep ( s ) */
(PID.TID 0000.0001)                 1.500000000000000E+01
(PID.TID 0000.0001)     ;
(PID.TID 0000.0001) deltaTFreeSurf = /* FreeSurface equation timestep ( s ) */
(PID.TID 0000.0001)                 1.500000000000000E+01
(PID.TID 0000.0001)     ;
(PID.TID 0000.0001) dTtracerLev =  /* Tracer equation timestep ( s ) */
(PID.TID 0000.0001)   100 @  1.500000000000000E+01              /* K =  1:100 */
(PID.TID 0000.0001)     ;
(PID.TID 0000.0001) deltaTClock  =   /* Model clock timestep ( s ) */
(PID.TID 0000.0001)                 1.500000000000000E+01
(PID.TID 0000.0001)     ;
(PID.TID 0000.0001) cAdjFreq =   /* Convective adjustment interval ( s ) */
(PID.TID 0000.0001)                 0.000000000000000E+00
(PID.TID 0000.0001)     ;
(PID.TID 0000.0001) momForcingOutAB = /* =1: take Momentum Forcing out of Adams-Bash. stepping */
(PID.TID 0000.0001)                       0
(PID.TID 0000.0001)     ;
(PID.TID 0000.0001) tracForcingOutAB = /* =1: take T,S,pTr Forcing out of Adams-Bash. stepping */
(PID.TID 0000.0001)                       0
(PID.TID 0000.0001)     ;
(PID.TID 0000.0001) momDissip_In_AB = /* put Dissipation Tendency in Adams-Bash. stepping */
(PID.TID 0000.0001)                   T
(PID.TID 0000.0001)     ;
(PID.TID 0000.0001) doAB_onGtGs = /* apply AB on Tendencies (rather than on T,S)*/
(PID.TID 0000.0001)                   T
(PID.TID 0000.0001)     ;
(PID.TID 0000.0001) abEps =   /* Adams-Bashforth-2 stabilizing weight */
(PID.TID 0000.0001)                 1.000000000000000E-01
(PID.TID 0000.0001)     ;
(PID.TID 0000.0001) pickupStrictlyMatch= /* stop if pickup do not strictly match */
(PID.TID 0000.0001)                   T
(PID.TID 0000.0001)     ;
(PID.TID 0000.0001) nIter0   =   /* Run starting timestep number */
(PID.TID 0000.0001)                       0
(PID.TID 0000.0001)     ;
(PID.TID 0000.0001) nTimeSteps = /* Number of timesteps */
(PID.TID 0000.0001)                    7200
(PID.TID 0000.0001)     ;
(PID.TID 0000.0001) nEndIter =   /* Run ending timestep number */
(PID.TID 0000.0001)                    7200
(PID.TID 0000.0001)     ;
(PID.TID 0000.0001) baseTime =   /* Model base time ( s ) */
(PID.TID 0000.0001)                 0.000000000000000E+00
(PID.TID 0000.0001)     ;
(PID.TID 0000.0001) startTime =  /* Run start time ( s ) */
(PID.TID 0000.0001)                 0.000000000000000E+00
(PID.TID 0000.0001)     ;
(PID.TID 0000.0001) endTime  =   /* Integration ending time ( s ) */
(PID.TID 0000.0001)                 1.080000000000000E+05
(PID.TID 0000.0001)     ;
(PID.TID 0000.0001) pChkPtFreq = /* Permanent restart/pickup file interval ( s ) */
(PID.TID 0000.0001)                 2.160000000000000E+04
(PID.TID 0000.0001)     ;
(PID.TID 0000.0001) chkPtFreq  = /* Rolling restart/pickup file interval ( s ) */
(PID.TID 0000.0001)                 0.000000000000000E+00
(PID.TID 0000.0001)     ;
(PID.TID 0000.0001) pickup_write_mdsio =   /* Model IO flag. */
(PID.TID 0000.0001)                   T
(PID.TID 0000.0001)     ;
(PID.TID 0000.0001) pickup_read_mdsio =   /* Model IO flag. */
(PID.TID 0000.0001)                   T
(PID.TID 0000.0001)     ;
(PID.TID 0000.0001) pickup_write_immed =   /* Model IO flag. */
(PID.TID 0000.0001)                   F
(PID.TID 0000.0001)     ;
(PID.TID 0000.0001) writePickupAtEnd =   /* Model IO flag. */
(PID.TID 0000.0001)                   T
(PID.TID 0000.0001)     ;
(PID.TID 0000.0001) dumpFreq =   /* Model state write out interval ( s ). */
(PID.TID 0000.0001)                 7.200000000000000E+03
(PID.TID 0000.0001)     ;
(PID.TID 0000.0001) dumpInitAndLast= /* write out Initial & Last iter. model state */
(PID.TID 0000.0001)                   T
(PID.TID 0000.0001)     ;
(PID.TID 0000.0001) snapshot_mdsio =   /* Model IO flag. */
(PID.TID 0000.0001)                   T
(PID.TID 0000.0001)     ;
(PID.TID 0000.0001) monitorFreq =   /* Monitor output interval ( s ). */
(PID.TID 0000.0001)                 7.200000000000000E+03
(PID.TID 0000.0001)     ;
(PID.TID 0000.0001) monitorSelect = /* select group of variables to monitor */
(PID.TID 0000.0001)                       3
(PID.TID 0000.0001)     ;
(PID.TID 0000.0001) monitor_stdio =   /* Model IO flag. */
(PID.TID 0000.0001)                   T
(PID.TID 0000.0001)     ;
(PID.TID 0000.0001) externForcingPeriod =   /* forcing period (s) */
(PID.TID 0000.0001)                 0.000000000000000E+00
(PID.TID 0000.0001)     ;
(PID.TID 0000.0001) externForcingCycle =   /* period of the cyle (s). */
(PID.TID 0000.0001)                 0.000000000000000E+00
(PID.TID 0000.0001)     ;
(PID.TID 0000.0001) tauThetaClimRelax =   /* relaxation time scale (s) */
(PID.TID 0000.0001)                 0.000000000000000E+00
(PID.TID 0000.0001)     ;
(PID.TID 0000.0001) tauSaltClimRelax =   /* relaxation time scale (s) */
(PID.TID 0000.0001)                 0.000000000000000E+00
(PID.TID 0000.0001)     ;
(PID.TID 0000.0001) latBandClimRelax =   /* max. Lat. where relaxation */
(PID.TID 0000.0001)                 1.500000000000000E+04
(PID.TID 0000.0001)     ;
(PID.TID 0000.0001) //
(PID.TID 0000.0001) // Gridding paramters ( PARM04 in namelist )
(PID.TID 0000.0001) //
(PID.TID 0000.0001) usingCartesianGrid = /* Cartesian coordinates flag ( True/False ) */
(PID.TID 0000.0001)                   T
(PID.TID 0000.0001)     ;
(PID.TID 0000.0001) usingCylindricalGrid = /* Cylindrical coordinates flag ( True/False ) */
(PID.TID 0000.0001)                   F
(PID.TID 0000.0001)     ;
(PID.TID 0000.0001) usingSphericalPolarGrid = /* Spherical coordinates flag ( True/False ) */
(PID.TID 0000.0001)                   F
(PID.TID 0000.0001)     ;
(PID.TID 0000.0001) usingCurvilinearGrid = /* Curvilinear coordinates flag ( True/False ) */
(PID.TID 0000.0001)                   F
(PID.TID 0000.0001)     ;
(PID.TID 0000.0001) selectSigmaCoord = /* Hybrid-Sigma Vert. Coordinate option */
(PID.TID 0000.0001)                       0
(PID.TID 0000.0001)     ;
(PID.TID 0000.0001) Ro_SeaLevel = /* r(1) ( units of r ==  m ) */
(PID.TID 0000.0001)                 0.000000000000000E+00
(PID.TID 0000.0001)     ;
(PID.TID 0000.0001) rSigmaBnd = /* r/sigma transition ( units of r ==  m ) */
(PID.TID 0000.0001)                 1.234567000000000E+05
(PID.TID 0000.0001)     ;
(PID.TID 0000.0001) rkSign =   /* index orientation relative to vertical coordinate */
(PID.TID 0000.0001)                -1.000000000000000E+00
(PID.TID 0000.0001)     ;
(PID.TID 0000.0001) gravitySign = /* gravity orientation relative to vertical coordinate */
(PID.TID 0000.0001)                -1.000000000000000E+00
(PID.TID 0000.0001)     ;
(PID.TID 0000.0001) mass2rUnit = /* convert mass per unit area [kg/m2] to r-units [m] */
(PID.TID 0000.0001)                 1.000200040008002E-03
(PID.TID 0000.0001)     ;
(PID.TID 0000.0001) rUnit2mass = /* convert r-units [m] to mass per unit area [kg/m2] */
(PID.TID 0000.0001)                 9.998000000000000E+02
(PID.TID 0000.0001)     ;
(PID.TID 0000.0001) drC =   /* C spacing ( units of r ) */
(PID.TID 0000.0001)                 1.911027841093720E+00,      /* K =  1 */
(PID.TID 0000.0001)                 3.793266387227716E+00,      /* K =  2 */
(PID.TID 0000.0001)                 3.736121502922837E+00,      /* K =  3 */
(PID.TID 0000.0001)                 3.679837496149051E+00,      /* K =  4 */
(PID.TID 0000.0001)                 3.624401397939275E+00,      /* K =  5 */
(PID.TID 0000.0001)                 3.569800434701612E+00,      /* K =  6 */
(PID.TID 0000.0001)                 3.516022025276056E+00,      /* K =  7 */
(PID.TID 0000.0001)                 3.463053778035543E+00,      /* K =  8 */
(PID.TID 0000.0001)                 3.410883488030667E+00,      /* K =  9 */
(PID.TID 0000.0001)                 3.359499134177421E+00,      /* K = 10 */
(PID.TID 0000.0001)                 3.308888876487289E+00,      /* K = 11 */
(PID.TID 0000.0001)                 3.259041053339081E+00,      /* K = 12 */
(PID.TID 0000.0001)                 3.209944178791858E+00,      /* K = 13 */
(PID.TID 0000.0001)                 3.161586939938343E+00,      /* K = 14 */
(PID.TID 0000.0001)                 3.113958194298194E+00,      /* K = 15 */
(PID.TID 0000.0001)                 3.067046967250559E+00,      /* K = 16 */
(PID.TID 0000.0001)                 3.020842449505298E+00,      /* K = 17 */
(PID.TID 0000.0001)                 2.975333994612308E+00,      /* K = 18 */
(PID.TID 0000.0001)                 2.930511116508364E+00,      /* K = 19 */
(PID.TID 0000.0001)                 2.886363487100922E+00,      /* K = 20 */
(PID.TID 0000.0001)                 2.842880933888319E+00,      /* K = 21 */
(PID.TID 0000.0001)                 2.800053437615819E+00,      /* K = 22 */
(PID.TID 0000.0001)                 2.757871129966981E+00,      /* K = 23 */
(PID.TID 0000.0001)                 2.716324291289798E+00,      /* K = 24 */
(PID.TID 0000.0001)                 2.675403348357094E+00,      /* K = 25 */
(PID.TID 0000.0001)                 2.635098872160659E+00,      /* K = 26 */
(PID.TID 0000.0001)                 2.595401575738620E+00,      /* K = 27 */
(PID.TID 0000.0001)                 2.556302312035529E+00,      /* K = 28 */
(PID.TID 0000.0001)                 2.517792071794709E+00,      /* K = 29 */
(PID.TID 0000.0001)                 2.479861981482332E+00,      /* K = 30 */
(PID.TID 0000.0001)                 2.442503301242782E+00,      /* K = 31 */
(PID.TID 0000.0001)                 2.405707422884812E+00,      /* K = 32 */
(PID.TID 0000.0001)                 2.369465867898052E+00,      /* K = 33 */
(PID.TID 0000.0001)                 2.333770285499381E+00,      /* K = 34 */
(PID.TID 0000.0001)                 2.298612450708744E+00,      /* K = 35 */
(PID.TID 0000.0001)                 2.263984262453950E+00,      /* K = 36 */
(PID.TID 0000.0001)                 2.229877741704019E+00,      /* K = 37 */
(PID.TID 0000.0001)                 2.196285029630657E+00,      /* K = 38 */
(PID.TID 0000.0001)                 2.163198385797422E+00,      /* K = 39 */
(PID.TID 0000.0001)                 2.130610186376174E+00,      /* K = 40 */
(PID.TID 0000.0001)                 2.098512922390386E+00,      /* K = 41 */
(PID.TID 0000.0001)                 2.066899197984931E+00,      /* K = 42 */
(PID.TID 0000.0001)                 2.035761728721925E+00,      /* K = 43 */
(PID.TID 0000.0001)                 2.005093339902247E+00,      /* K = 44 */
(PID.TID 0000.0001)                 1.974886964912343E+00,      /* K = 45 */
(PID.TID 0000.0001)                 1.945135643595938E+00,      /* K = 46 */
(PID.TID 0000.0001)                 1.915832520650274E+00,      /* K = 47 */
(PID.TID 0000.0001)                 1.886970844046513E+00,      /* K = 48 */
(PID.TID 0000.0001)                 1.858543963473929E+00,      /* K = 49 */
(PID.TID 0000.0001)                 1.830545328807549E+00,      /* K = 50 */
(PID.TID 0000.0001)                 1.802968488598866E+00,      /* K = 51 */
(PID.TID 0000.0001)                 1.775807088589302E+00,      /* K = 52 */
(PID.TID 0000.0001)                 1.749054870246054E+00,      /* K = 53 */
(PID.TID 0000.0001)                 1.722705669320003E+00,      /* K = 54 */
(PID.TID 0000.0001)                 1.696753414425351E+00,      /* K = 55 */
(PID.TID 0000.0001)                 1.671192125640645E+00,      /* K = 56 */
(PID.TID 0000.0001)                 1.646015913130889E+00,      /* K = 57 */
(PID.TID 0000.0001)                 1.621218975790403E+00,      /* K = 58 */
(PID.TID 0000.0001)                 1.596795599906137E+00,      /* K = 59 */
(PID.TID 0000.0001)                 1.572740157841108E+00,      /* K = 60 */
(PID.TID 0000.0001)                 1.549047106737689E+00,      /* K = 61 */
(PID.TID 0000.0001)                 1.525710987240416E+00,      /* K = 62 */
(PID.TID 0000.0001)                 1.502726422238047E+00,      /* K = 63 */
(PID.TID 0000.0001)                 1.480088115624565E+00,      /* K = 64 */
(PID.TID 0000.0001)                 1.457790851078848E+00,      /* K = 65 */
(PID.TID 0000.0001)                 1.435829490862726E+00,      /* K = 66 */
(PID.TID 0000.0001)                 1.414198974637144E+00,      /* K = 67 */
(PID.TID 0000.0001)                 1.392894318296153E+00,      /* K = 68 */
(PID.TID 0000.0001)                 1.371910612818476E+00,      /* K = 69 */
(PID.TID 0000.0001)                 1.351243023136370E+00,      /* K = 70 */
(PID.TID 0000.0001)                 1.330886787021528E+00,      /* K = 71 */
(PID.TID 0000.0001)                 1.310837213987765E+00,      /* K = 72 */
(PID.TID 0000.0001)                 1.291089684210241E+00,      /* K = 73 */
(PID.TID 0000.0001)                 1.271639647460953E+00,      /* K = 74 */
(PID.TID 0000.0001)                 1.252482622060276E+00,      /* K = 75 */
(PID.TID 0000.0001)                 1.233614193844294E+00,      /* K = 76 */
(PID.TID 0000.0001)                 1.215030015147682E+00,      /* K = 77 */
(PID.TID 0000.0001)                 1.196725803801926E+00,      /* K = 78 */
(PID.TID 0000.0001)                 1.178697342148616E+00,      /* K = 79 */
(PID.TID 0000.0001)                 1.160940476067618E+00,      /* K = 80 */
(PID.TID 0000.0001)                 1.143451114019882E+00,      /* K = 81 */
(PID.TID 0000.0001)                 1.126225226104663E+00,      /* K = 82 */
(PID.TID 0000.0001)                 1.109258843130958E+00,      /* K = 83 */
(PID.TID 0000.0001)                 1.092548055702920E+00,      /* K = 84 */
(PID.TID 0000.0001)                 1.076089013319057E+00,      /* K = 85 */
(PID.TID 0000.0001)                 1.059877923484997E+00,      /* K = 86 */
(PID.TID 0000.0001)                 1.043911050839622E+00,      /* K = 87 */
(PID.TID 0000.0001)                 1.028184716294366E+00,      /* K = 88 */
(PID.TID 0000.0001)                 1.012695296185480E+00,      /* K = 89 */
(PID.TID 0000.0001)                 1.002504682609961E+00,      /* K = 90 */
(PID.TID 0000.0001)     3 @  1.000000000000000E+00,             /* K = 91: 93 */
(PID.TID 0000.0001)                 1.045738735852738E+00,      /* K = 94 */
(PID.TID 0000.0001)                 1.099824677998580E+00,      /* K = 95 */
(PID.TID 0000.0001)                 1.116646763129032E+00,      /* K = 96 */
(PID.TID 0000.0001)                 1.133726146130497E+00,      /* K = 97 */
(PID.TID 0000.0001)                 1.151066762436300E+00,      /* K = 98 */
(PID.TID 0000.0001)                 1.168672607673173E+00,      /* K = 99 */
(PID.TID 0000.0001)                 1.186547738581929E+00,      /* K =100 */
(PID.TID 0000.0001)                 5.977765681977496E-01       /* K =101 */
(PID.TID 0000.0001)     ;
(PID.TID 0000.0001) drF =   /* W spacing ( units of r ) */
(PID.TID 0000.0001)                 3.822055682187439E+00,      /* K =  1 */
(PID.TID 0000.0001)                 3.764477092267992E+00,      /* K =  2 */
(PID.TID 0000.0001)                 3.707765913577681E+00,      /* K =  3 */
(PID.TID 0000.0001)                 3.651909078720421E+00,      /* K =  4 */
(PID.TID 0000.0001)                 3.596893717158130E+00,      /* K =  5 */
(PID.TID 0000.0001)                 3.542707152245095E+00,      /* K =  6 */
(PID.TID 0000.0001)                 3.489336898307018E+00,      /* K =  7 */
(PID.TID 0000.0001)                 3.436770657764067E+00,      /* K =  8 */
(PID.TID 0000.0001)                 3.384996318297267E+00,      /* K =  9 */
(PID.TID 0000.0001)                 3.334001950057574E+00,      /* K = 10 */
(PID.TID 0000.0001)                 3.283775802917003E+00,      /* K = 11 */
(PID.TID 0000.0001)                 3.234306303761158E+00,      /* K = 12 */
(PID.TID 0000.0001)                 3.185582053822558E+00,      /* K = 13 */
(PID.TID 0000.0001)                 3.137591826054127E+00,      /* K = 14 */
(PID.TID 0000.0001)                 3.090324562542261E+00,      /* K = 15 */
(PID.TID 0000.0001)                 3.043769371958857E+00,      /* K = 16 */
(PID.TID 0000.0001)                 2.997915527051739E+00,      /* K = 17 */
(PID.TID 0000.0001)                 2.952752462172877E+00,      /* K = 18 */
(PID.TID 0000.0001)                 2.908269770843852E+00,      /* K = 19 */
(PID.TID 0000.0001)                 2.864457203357994E+00,      /* K = 20 */
(PID.TID 0000.0001)                 2.821304664418644E+00,      /* K = 21 */
(PID.TID 0000.0001)                 2.778802210812994E+00,      /* K = 22 */
(PID.TID 0000.0001)                 2.736940049120968E+00,      /* K = 23 */
(PID.TID 0000.0001)                 2.695708533458628E+00,      /* K = 24 */
(PID.TID 0000.0001)                 2.655098163255560E+00,      /* K = 25 */
(PID.TID 0000.0001)                 2.615099581065759E+00,      /* K = 26 */
(PID.TID 0000.0001)                 2.575703570411481E+00,      /* K = 27 */
(PID.TID 0000.0001)                 2.536901053659578E+00,      /* K = 28 */
(PID.TID 0000.0001)                 2.498683089929840E+00,      /* K = 29 */
(PID.TID 0000.0001)                 2.461040873034825E+00,      /* K = 30 */
(PID.TID 0000.0001)                 2.423965729450739E+00,      /* K = 31 */
(PID.TID 0000.0001)                 2.387449116318886E+00,      /* K = 32 */
(PID.TID 0000.0001)                 2.351482619477218E+00,      /* K = 33 */
(PID.TID 0000.0001)                 2.316057951521544E+00,      /* K = 34 */
(PID.TID 0000.0001)                 2.281166949895945E+00,      /* K = 35 */
(PID.TID 0000.0001)                 2.246801575011955E+00,      /* K = 36 */
(PID.TID 0000.0001)                 2.212953908396083E+00,      /* K = 37 */
(PID.TID 0000.0001)                 2.179616150865231E+00,      /* K = 38 */
(PID.TID 0000.0001)                 2.146780620729614E+00,      /* K = 39 */
(PID.TID 0000.0001)                 2.114439752022734E+00,      /* K = 40 */
(PID.TID 0000.0001)                 2.082586092758038E+00,      /* K = 41 */
(PID.TID 0000.0001)                 2.051212303211825E+00,      /* K = 42 */
(PID.TID 0000.0001)                 2.020311154232026E+00,      /* K = 43 */
(PID.TID 0000.0001)                 1.989875525572468E+00,      /* K = 44 */
(PID.TID 0000.0001)                 1.959898404252218E+00,      /* K = 45 */
(PID.TID 0000.0001)                 1.930372882939658E+00,      /* K = 46 */
(PID.TID 0000.0001)                 1.901292158360891E+00,      /* K = 47 */
(PID.TID 0000.0001)                 1.872649529732135E+00,      /* K = 48 */
(PID.TID 0000.0001)                 1.844438397215723E+00,      /* K = 49 */
(PID.TID 0000.0001)                 1.816652260399374E+00,      /* K = 50 */
(PID.TID 0000.0001)                 1.789284716798359E+00,      /* K = 51 */
(PID.TID 0000.0001)                 1.762329460380246E+00,      /* K = 52 */
(PID.TID 0000.0001)                 1.735780280111862E+00,      /* K = 53 */
(PID.TID 0000.0001)                 1.709631058528145E+00,      /* K = 54 */
(PID.TID 0000.0001)                 1.683875770322557E+00,      /* K = 55 */
(PID.TID 0000.0001)                 1.658508480958733E+00,      /* K = 56 */
(PID.TID 0000.0001)                 1.633523345303044E+00,      /* K = 57 */
(PID.TID 0000.0001)                 1.608914606277762E+00,      /* K = 58 */
(PID.TID 0000.0001)                 1.584676593534511E+00,      /* K = 59 */
(PID.TID 0000.0001)                 1.560803722147705E+00,      /* K = 60 */
(PID.TID 0000.0001)                 1.537290491327673E+00,      /* K = 61 */
(PID.TID 0000.0001)                 1.514131483153160E+00,      /* K = 62 */
(PID.TID 0000.0001)                 1.491321361322935E+00,      /* K = 63 */
(PID.TID 0000.0001)                 1.468854869926195E+00,      /* K = 64 */
(PID.TID 0000.0001)                 1.446726832231500E+00,      /* K = 65 */
(PID.TID 0000.0001)                 1.424932149493952E+00,      /* K = 66 */
(PID.TID 0000.0001)                 1.403465799780336E+00,      /* K = 67 */
(PID.TID 0000.0001)                 1.382322836811970E+00,      /* K = 68 */
(PID.TID 0000.0001)                 1.361498388824982E+00,      /* K = 69 */
(PID.TID 0000.0001)                 1.340987657447758E+00,      /* K = 70 */
(PID.TID 0000.0001)                 1.320785916595297E+00,      /* K = 71 */
(PID.TID 0000.0001)                 1.300888511380233E+00,      /* K = 72 */
(PID.TID 0000.0001)                 1.281290857040249E+00,      /* K = 73 */
(PID.TID 0000.0001)                 1.261988437881657E+00,      /* K = 74 */
(PID.TID 0000.0001)                 1.242976806238896E+00,      /* K = 75 */
(PID.TID 0000.0001)                 1.224251581449692E+00,      /* K = 76 */
(PID.TID 0000.0001)                 1.205808448845673E+00,      /* K = 77 */
(PID.TID 0000.0001)                 1.187643158758179E+00,      /* K = 78 */
(PID.TID 0000.0001)                 1.169751525539053E+00,      /* K = 79 */
(PID.TID 0000.0001)                 1.152129426596184E+00,      /* K = 80 */
(PID.TID 0000.0001)                 1.134772801443579E+00,      /* K = 81 */
(PID.TID 0000.0001)                 1.117677650765746E+00,      /* K = 82 */
(PID.TID 0000.0001)                 1.100840035496170E+00,      /* K = 83 */
(PID.TID 0000.0001)                 1.084256075909671E+00,      /* K = 84 */
(PID.TID 0000.0001)                 1.067921950728443E+00,      /* K = 85 */
(PID.TID 0000.0001)                 1.051833896241551E+00,      /* K = 86 */
(PID.TID 0000.0001)                 1.035988205437693E+00,      /* K = 87 */
(PID.TID 0000.0001)                 1.020381227151040E+00,      /* K = 88 */
(PID.TID 0000.0001)                 1.005009365219921E+00,      /* K = 89 */
(PID.TID 0000.0001)     4 @  1.000000000000000E+00,             /* K = 90: 93 */
(PID.TID 0000.0001)                 1.091477471705477E+00,      /* K = 94 */
(PID.TID 0000.0001)                 1.108171884291683E+00,      /* K = 95 */
(PID.TID 0000.0001)                 1.125121641966381E+00,      /* K = 96 */
(PID.TID 0000.0001)                 1.142330650294613E+00,      /* K = 97 */
(PID.TID 0000.0001)                 1.159802874577986E+00,      /* K = 98 */
(PID.TID 0000.0001)                 1.177542340768360E+00,      /* K = 99 */
(PID.TID 0000.0001)                 1.195553136395499E+00       /* K =100 */
(PID.TID 0000.0001)     ;
(PID.TID 0000.0001) delX = /* U spacing ( m - cartesian, degrees - spherical ) */
(PID.TID 0000.0001)                 1.263294638016668E+03,      /* I =  1 */
(PID.TID 0000.0001)                 1.237496063806571E+03,      /* I =  2 */
(PID.TID 0000.0001)                 1.212224339320398E+03,      /* I =  3 */
(PID.TID 0000.0001)      . . .
(PID.TID 0000.0001)                 4.790113490274632E+02,      /* I = 48 */
(PID.TID 0000.0001)                 4.692291418815790E+02,      /* I = 49 */
(PID.TID 0000.0001)                 4.596467036489769E+02,      /* I = 50 */
(PID.TID 0000.0001)                 4.502599547167311E+02,      /* I = 51 */
(PID.TID 0000.0001)                 4.410648987843862E+02,      /* I = 52 */
(PID.TID 0000.0001)                 4.320576211625778E+02,      /* I = 53 */
(PID.TID 0000.0001)      . . .
(PID.TID 0000.0001)                 2.000000000000000E+02,      /* I = 98 */
(PID.TID 0000.0001)                 2.000000000000000E+02,      /* I = 99 */
(PID.TID 0000.0001)                 2.000000000000000E+02,      /* I =100 */
(PID.TID 0000.0001)                 2.000000000000000E+02,      /* I =101 */
(PID.TID 0000.0001)                 2.000000000000000E+02,      /* I =102 */
(PID.TID 0000.0001)                 2.000000000000000E+02,      /* I =103 */
(PID.TID 0000.0001)      . . .
(PID.TID 0000.0001)                 3.612641354876311E+02,      /* I =148 */
(PID.TID 0000.0001)                 3.687955530665730E+02,      /* I =149 */
(PID.TID 0000.0001)                 3.764839811128614E+02,      /* I =150 */
(PID.TID 0000.0001)                 3.843326928863569E+02,      /* I =151 */
(PID.TID 0000.0001)                 3.923450298858749E+02,      /* I =152 */
(PID.TID 0000.0001)                 4.005244032717896E+02,      /* I =153 */
(PID.TID 0000.0001)      . . .
(PID.TID 0000.0001)                 1.013599012055986E+03,      /* I =198 */
(PID.TID 0000.0001)                 1.034729915092050E+03,      /* I =199 */
(PID.TID 0000.0001)                 1.056301342495056E+03       /* I =200 */
(PID.TID 0000.0001)     ;
(PID.TID 0000.0001) delY = /* V spacing ( m - cartesian, degrees - spherical ) */
(PID.TID 0000.0001)                 5.000000000000000E+03       /* J =  1 */
(PID.TID 0000.0001)     ;
(PID.TID 0000.0001) xgOrigin = /* X-axis origin of West  edge (cartesian: m, lat-lon: deg) */
(PID.TID 0000.0001)                 0.000000000000000E+00
(PID.TID 0000.0001)     ;
(PID.TID 0000.0001) ygOrigin = /* Y-axis origin of South edge (cartesian: m, lat-lon: deg) */
(PID.TID 0000.0001)                 0.000000000000000E+00
(PID.TID 0000.0001)     ;
(PID.TID 0000.0001) rSphere =  /* Radius ( ignored - cartesian, m - spherical ) */
(PID.TID 0000.0001)                 6.370000000000000E+06
(PID.TID 0000.0001)     ;
(PID.TID 0000.0001) deepAtmosphere = /* Deep/Shallow Atmosphere flag (True/False) */
(PID.TID 0000.0001)                   F
(PID.TID 0000.0001)     ;
(PID.TID 0000.0001) xC =  /* xC(:,1,:,1) : P-point X coord ( deg. or m if cartesian) */
(PID.TID 0000.0001)                 6.316473190083342E+02,      /* I =  1 */
(PID.TID 0000.0001)                 1.882042669919954E+03,      /* I =  2 */
(PID.TID 0000.0001)                 3.106902871483439E+03,      /* I =  3 */
(PID.TID 0000.0001)      . . .
(PID.TID 0000.0001)                 3.864398747251778E+04,      /* I = 48 */
[...]
 cg2d: Sum(rhs),rhsMax =  -2.07805994634214E-11  2.88971618445277E-01
 cg2d: Sum(rhs),rhsMax =  -2.07683870101505E-11  2.89106574085441E-01
 cg2d: Sum(rhs),rhsMax =  -2.07597272705584E-11  2.89223185992610E-01
 cg2d: Sum(rhs),rhsMax =  -2.07714956346194E-11  2.89321523276537E-01
 cg2d: Sum(rhs),rhsMax =  -2.07557304676698E-11  2.89401901705739E-01
 cg2d: Sum(rhs),rhsMax =  -2.07510675309663E-11  2.89464959196603E-01
 cg2d: Sum(rhs),rhsMax =  -2.07421857467693E-11  2.89511653931229E-01
 cg2d: Sum(rhs),rhsMax =  -2.07360795201339E-11  2.89543159317684E-01
 cg2d: Sum(rhs),rhsMax =  -2.07651673633791E-11  2.89560671516354E-01
 cg2d: Sum(rhs),rhsMax =  -2.07655004302865E-11  2.89565184326115E-01
 cg2d: Sum(rhs),rhsMax =  -2.07517336647811E-11  2.89557303392324E-01
 cg2d: Sum(rhs),rhsMax =  -2.07454053935408E-11  2.89537158560432E-01
 cg2d: Sum(rhs),rhsMax =  -2.07581729583239E-11  2.89504436663175E-01
 cg2d: Sum(rhs),rhsMax =  -2.07375228100659E-11  2.89458514773817E-01
 cg2d: Sum(rhs),rhsMax =  -2.07320827172452E-11  2.89398643970303E-01
 cg2d: Sum(rhs),rhsMax =  -2.07038830524198E-11  2.89324125895589E-01
 cg2d: Sum(rhs),rhsMax =  -2.06874517516553E-11  2.89234437629903E-01
 cg2d: Sum(rhs),rhsMax =  -2.06278327752329E-11  2.89129285217827E-01
 cg2d: Sum(rhs),rhsMax =  -2.06601402652495E-11  2.89008591302251E-01
 cg2d: Sum(rhs),rhsMax =  -2.07638350957495E-11  2.88872439550838E-01
 cg2d: Sum(rhs),rhsMax =  -2.07733830137613E-11  2.88721004874850E-01
 cg2d: Sum(rhs),rhsMax =  -2.07939221397169E-11  2.88554495049062E-01
 cg2d: Sum(rhs),rhsMax =  -2.08086881059444E-11  2.88373119740874E-01
 cg2d: Sum(rhs),rhsMax =  -2.08267847412458E-11  2.88177091234405E-01
 cg2d: Sum(rhs),rhsMax =  -2.08583150751451E-11  2.87966650913981E-01
 cg2d: Sum(rhs),rhsMax =  -2.09964268194085E-11  2.87742109313258E-01
 cg2d: Sum(rhs),rhsMax =  -2.10044204251858E-11  2.87503886080550E-01
 cg2d: Sum(rhs),rhsMax =  -2.11389794557704E-11  2.87252538726567E-01
 cg2d: Sum(rhs),rhsMax =  -2.12586614978250E-11  2.86988773514704E-01
 cg2d: Sum(rhs),rhsMax =  -2.14289697098025E-11  2.86713436444942E-01
 cg2d: Sum(rhs),rhsMax =  -2.14329665126911E-11  2.86427485683132E-01
 cg2d: Sum(rhs),rhsMax =  -2.14843698387313E-11  2.86131948193440E-01
 cg2d: Sum(rhs),rhsMax =  -2.15204520870316E-11  2.85827862516047E-01
 cg2d: Sum(rhs),rhsMax =  -2.15593098928935E-11  2.85516208420340E-01
(PID.TID 0000.0001)      cg2d_init_res =   5.96383303391086E-02
(PID.TID 0000.0001)      cg2d_iters(min,last) =      -1      29
(PID.TID 0000.0001)      cg2d_last_res =   5.85266282044088E-14
(PID.TID 0000.0001) // =======================================================
(PID.TID 0000.0001) // Begin MONITOR dynamic field statistics
(PID.TID 0000.0001) // =======================================================
(PID.TID 0000.0001) %MON time_tsnumber                =                  7200
(PID.TID 0000.0001) %MON time_secondsf                =   1.0800000000000E+05
(PID.TID 0000.0001) %MON dynstat_eta_max              =   3.1170554592644E-02
(PID.TID 0000.0001) %MON dynstat_eta_min              =  -2.3347540546164E-02
(PID.TID 0000.0001) %MON dynstat_eta_mean             =   7.1249904702582E-15
(PID.TID 0000.0001) %MON dynstat_eta_sd               =   1.1933474710987E-02
(PID.TID 0000.0001) %MON dynstat_eta_del2             =   2.0741826958067E-04
(PID.TID 0000.0001) %MON dynstat_uvel_max             =   1.3944204657919E+00
(PID.TID 0000.0001) %MON dynstat_uvel_min             =  -7.3947593929385E-01
(PID.TID 0000.0001) %MON dynstat_uvel_mean            =  -2.7872747056790E-04
(PID.TID 0000.0001) %MON dynstat_uvel_sd              =   2.9284715532748E-01
(PID.TID 0000.0001) %MON dynstat_uvel_del2            =   9.7388914281927E-04
(PID.TID 0000.0001) %MON dynstat_vvel_max             =   0.0000000000000E+00
(PID.TID 0000.0001) %MON dynstat_vvel_min             =   0.0000000000000E+00
(PID.TID 0000.0001) %MON dynstat_vvel_mean            =   0.0000000000000E+00
(PID.TID 0000.0001) %MON dynstat_vvel_sd              =   0.0000000000000E+00
(PID.TID 0000.0001) %MON dynstat_vvel_del2            =   0.0000000000000E+00
(PID.TID 0000.0001) %MON dynstat_wvel_max             =   3.5705923953570E-02
(PID.TID 0000.0001) %MON dynstat_wvel_min             =  -3.2285200372291E-02
(PID.TID 0000.0001) %MON dynstat_wvel_mean            =   1.0903217982571E-19
(PID.TID 0000.0001) %MON dynstat_wvel_sd              =   3.8250477135491E-03
(PID.TID 0000.0001) %MON dynstat_wvel_del2            =   7.8728992550862E-05
(PID.TID 0000.0001) %MON dynstat_theta_max            =   1.4976502385655E+01
(PID.TID 0000.0001) %MON dynstat_theta_min            =   9.9765023856447E+00
(PID.TID 0000.0001) %MON dynstat_theta_mean           =   1.2358796021791E+01
(PID.TID 0000.0001) %MON dynstat_theta_sd             =   2.1802114157270E+00
(PID.TID 0000.0001) %MON dynstat_theta_del2           =   2.0892534188386E-03
(PID.TID 0000.0001) %MON dynstat_salt_max             =   3.5000000000000E+01
(PID.TID 0000.0001) %MON dynstat_salt_min             =   3.5000000000000E+01
(PID.TID 0000.0001) %MON dynstat_salt_mean            =   3.5000000000000E+01
(PID.TID 0000.0001) %MON dynstat_salt_sd              =   3.4816594052245E-13
(PID.TID 0000.0001) %MON dynstat_salt_del2            =   0.0000000000000E+00
(PID.TID 0000.0001) %MON dynstat_sst_max              =   1.4976502385655E+01
(PID.TID 0000.0001) %MON dynstat_sst_min              =   1.4659900811546E+01
(PID.TID 0000.0001) %MON dynstat_sst_mean             =   1.4924698392629E+01
(PID.TID 0000.0001) %MON dynstat_sst_sd               =   8.2993865000123E-02
(PID.TID 0000.0001) %MON dynstat_sst_del2             =   7.0734418892544E-04
(PID.TID 0000.0001) %MON dynstat_sss_max              =   3.5000000000000E+01
(PID.TID 0000.0001) %MON dynstat_sss_min              =   3.5000000000000E+01
(PID.TID 0000.0001) %MON dynstat_sss_mean             =   3.5000000000000E+01
(PID.TID 0000.0001) %MON dynstat_sss_sd               =   3.5527136788005E-14
(PID.TID 0000.0001) %MON dynstat_sss_del2             =   0.0000000000000E+00
(PID.TID 0000.0001) %MON forcing_qnet_max             =   0.0000000000000E+00
(PID.TID 0000.0001) %MON forcing_qnet_min             =   0.0000000000000E+00
(PID.TID 0000.0001) %MON forcing_qnet_mean            =   0.0000000000000E+00
(PID.TID 0000.0001) %MON forcing_qnet_sd              =   0.0000000000000E+00
(PID.TID 0000.0001) %MON forcing_qnet_del2            =   0.0000000000000E+00
(PID.TID 0000.0001) %MON forcing_qsw_max              =   0.0000000000000E+00
(PID.TID 0000.0001) %MON forcing_qsw_min              =   0.0000000000000E+00
(PID.TID 0000.0001) %MON forcing_qsw_mean             =   0.0000000000000E+00
(PID.TID 0000.0001) %MON forcing_qsw_sd               =   0.0000000000000E+00
(PID.TID 0000.0001) %MON forcing_qsw_del2             =   0.0000000000000E+00
(PID.TID 0000.0001) %MON forcing_empmr_max            =   0.0000000000000E+00
(PID.TID 0000.0001) %MON forcing_empmr_min            =   0.0000000000000E+00
(PID.TID 0000.0001) %MON forcing_empmr_mean           =   0.0000000000000E+00
(PID.TID 0000.0001) %MON forcing_empmr_sd             =   0.0000000000000E+00
(PID.TID 0000.0001) %MON forcing_empmr_del2           =   0.0000000000000E+00
(PID.TID 0000.0001) %MON forcing_fu_max               =   0.0000000000000E+00
(PID.TID 0000.0001) %MON forcing_fu_min               =   0.0000000000000E+00
(PID.TID 0000.0001) %MON forcing_fu_mean              =   0.0000000000000E+00
(PID.TID 0000.0001) %MON forcing_fu_sd                =   0.0000000000000E+00
(PID.TID 0000.0001) %MON forcing_fu_del2              =   0.0000000000000E+00
(PID.TID 0000.0001) %MON forcing_fv_max               =   0.0000000000000E+00
(PID.TID 0000.0001) %MON forcing_fv_min               =   0.0000000000000E+00
(PID.TID 0000.0001) %MON forcing_fv_mean              =   0.0000000000000E+00
(PID.TID 0000.0001) %MON forcing_fv_sd                =   0.0000000000000E+00
(PID.TID 0000.0001) %MON forcing_fv_del2              =   0.0000000000000E+00
(PID.TID 0000.0001) %MON advcfl_uvel_max              =   8.2983597586829E-02
(PID.TID 0000.0001) %MON advcfl_vvel_max              =   0.0000000000000E+00
(PID.TID 0000.0001) %MON advcfl_wvel_max              =   2.0376914199304E-01
(PID.TID 0000.0001) %MON advcfl_W_hf_max              =   2.0532749121093E-01
(PID.TID 0000.0001) %MON pe_b_mean                    =   3.9977119816873E-06
(PID.TID 0000.0001) %MON ke_max                       =   8.5794603116240E-01
(PID.TID 0000.0001) %MON ke_mean                      =   4.3354421147374E-02
(PID.TID 0000.0001) %MON ke_vol                       =   8.5337279889550E+10
(PID.TID 0000.0001) %MON vort_r_min                   =   0.0000000000000E+00
(PID.TID 0000.0001) %MON vort_r_max                   =   0.0000000000000E+00
(PID.TID 0000.0001) %MON vort_a_mean                  =   0.0000000000000E+00
(PID.TID 0000.0001) %MON vort_a_sd                    =   0.0000000000000E+00
(PID.TID 0000.0001) %MON vort_p_mean                  =   0.0000000000000E+00
(PID.TID 0000.0001) %MON vort_p_sd                    =   0.0000000000000E+00
(PID.TID 0000.0001) %MON surfExpan_theta_mean         =  -8.6291110127147E-08
(PID.TID 0000.0001) %MON surfExpan_salt_mean          =   4.7731281914753E-18
(PID.TID 0000.0001) // =======================================================
(PID.TID 0000.0001) // End MONITOR dynamic field statistics
(PID.TID 0000.0001) // =======================================================
(PID.TID 0000.0001) // =======================================================
(PID.TID 0000.0001) // Begin OBCS MONITOR field statistics
(PID.TID 0000.0001) // =======================================================
(PID.TID 0000.0001) %MON obc_E_uVel_max               =   0.0000000000000E+00
(PID.TID 0000.0001) %MON obc_E_uVel_min               =   0.0000000000000E+00
(PID.TID 0000.0001) %MON obc_E_uVel_mean              =   0.0000000000000E+00
(PID.TID 0000.0001) %MON obc_E_uVel_sd                =   0.0000000000000E+00
(PID.TID 0000.0001) %MON obc_E_uVel_Int               =   0.0000000000000E+00
(PID.TID 0000.0001) %MON obc_W_uVel_max               =   0.0000000000000E+00
(PID.TID 0000.0001) %MON obc_W_uVel_min               =   0.0000000000000E+00
(PID.TID 0000.0001) %MON obc_W_uVel_mean              =   0.0000000000000E+00
(PID.TID 0000.0001) %MON obc_W_uVel_sd                =   0.0000000000000E+00
(PID.TID 0000.0001) %MON obc_W_uVel_Int               =   0.0000000000000E+00
(PID.TID 0000.0001) // =======================================================
(PID.TID 0000.0001) // End OBCS MONITOR field statistics
(PID.TID 0000.0001) // =======================================================
(PID.TID 0000.0001) %CHECKPOINT      7200 0000007200
(PID.TID 0000.0001)   Seconds in section "ALL                    [THE_MODEL_MAIN]":
(PID.TID 0000.0001)           User time:   252.44000000000000
(PID.TID 0000.0001)         System time:  0.31000000000000000
(PID.TID 0000.0001)     Wall clock time:   253.45209908485413
(PID.TID 0000.0001)          No. starts:           1
(PID.TID 0000.0001)           No. stops:           1
(PID.TID 0000.0001)   Seconds in section "INITIALISE_FIXED       [THE_MODEL_MAIN]":
(PID.TID 0000.0001)           User time:   5.9999999999999998E-002
(PID.TID 0000.0001)         System time:   0.0000000000000000
(PID.TID 0000.0001)     Wall clock time:  0.12315082550048828
(PID.TID 0000.0001)          No. starts:           1
(PID.TID 0000.0001)           No. stops:           1
(PID.TID 0000.0001)   Seconds in section "THE_MAIN_LOOP          [THE_MODEL_MAIN]":
(PID.TID 0000.0001)           User time:   252.38000000000000
(PID.TID 0000.0001)         System time:  0.31000000000000000
(PID.TID 0000.0001)     Wall clock time:   253.32887482643127
(PID.TID 0000.0001)          No. starts:           1
(PID.TID 0000.0001)           No. stops:           1
(PID.TID 0000.0001)   Seconds in section "INITIALISE_VARIA    [THE_MAIN_LOOP]":
(PID.TID 0000.0001)           User time:   4.0000000000000008E-002
(PID.TID 0000.0001)         System time:   1.0000000000000000E-002
(PID.TID 0000.0001)     Wall clock time:   5.2877902984619141E-002
(PID.TID 0000.0001)          No. starts:           1
(PID.TID 0000.0001)           No. stops:           1
(PID.TID 0000.0001)   Seconds in section "MAIN LOOP           [THE_MAIN_LOOP]":
(PID.TID 0000.0001)           User time:   252.34000000000000
(PID.TID 0000.0001)         System time:  0.29999999999999999
(PID.TID 0000.0001)     Wall clock time:   253.27593493461609
(PID.TID 0000.0001)          No. starts:           1
(PID.TID 0000.0001)           No. stops:           1
(PID.TID 0000.0001)   Seconds in section "MAIN_DO_LOOP        [THE_MAIN_LOOP]":
(PID.TID 0000.0001)           User time:   252.26999999999370
(PID.TID 0000.0001)         System time:  0.30000000000000032
(PID.TID 0000.0001)     Wall clock time:   253.21128916740417
(PID.TID 0000.0001)          No. starts:        7200
(PID.TID 0000.0001)           No. stops:        7200
(PID.TID 0000.0001)   Seconds in section "FORWARD_STEP        [MAIN_DO_LOOP]":
(PID.TID 0000.0001)           User time:   252.05999999999366
(PID.TID 0000.0001)         System time:  0.29000000000000031
(PID.TID 0000.0001)     Wall clock time:   253.07954287528992
(PID.TID 0000.0001)          No. starts:        7200
(PID.TID 0000.0001)           No. stops:        7200
(PID.TID 0000.0001)   Seconds in section "LOAD_FIELDS_DRIVER  [FORWARD_STEP]":
(PID.TID 0000.0001)           User time:  0.18999999999996930
(PID.TID 0000.0001)         System time:   0.0000000000000000
(PID.TID 0000.0001)     Wall clock time:  0.19776391983032227
(PID.TID 0000.0001)          No. starts:        7200
(PID.TID 0000.0001)           No. stops:        7200
(PID.TID 0000.0001)   Seconds in section "EXTERNAL_FLDS_LOAD [LOAD_FLDS_DRIVER]":
(PID.TID 0000.0001)           User time:   7.0000000000021600E-002
(PID.TID 0000.0001)         System time:   0.0000000000000000
(PID.TID 0000.0001)     Wall clock time:   6.6013813018798828E-002
(PID.TID 0000.0001)          No. starts:        7200
(PID.TID 0000.0001)           No. stops:        7200
(PID.TID 0000.0001)   Seconds in section "DO_ATMOSPHERIC_PHYS [FORWARD_STEP]":
(PID.TID 0000.0001)           User time:   3.0000000000001137E-002
(PID.TID 0000.0001)         System time:   0.0000000000000000
(PID.TID 0000.0001)     Wall clock time:   6.5885782241821289E-002
(PID.TID 0000.0001)          No. starts:        7200
(PID.TID 0000.0001)           No. stops:        7200
(PID.TID 0000.0001)   Seconds in section "DO_OCEANIC_PHYS     [FORWARD_STEP]":
(PID.TID 0000.0001)           User time:   79.459999999979544
(PID.TID 0000.0001)         System time:  0.10000000000000009
(PID.TID 0000.0001)     Wall clock time:   79.470957994461060
(PID.TID 0000.0001)          No. starts:        7200
(PID.TID 0000.0001)           No. stops:        7200
(PID.TID 0000.0001)   Seconds in section "DYNAMICS            [FORWARD_STEP]":
(PID.TID 0000.0001)           User time:   83.449999999982452
(PID.TID 0000.0001)         System time:   3.0000000000000027E-002
(PID.TID 0000.0001)     Wall clock time:   83.304414272308350
(PID.TID 0000.0001)          No. starts:        7200
(PID.TID 0000.0001)           No. stops:        7200
(PID.TID 0000.0001)   Seconds in section "SOLVE_FOR_PRESSURE  [FORWARD_STEP]":
(PID.TID 0000.0001)           User time:   2.6899999999999693
(PID.TID 0000.0001)         System time:   0.0000000000000000
(PID.TID 0000.0001)     Wall clock time:   2.8721623420715332
(PID.TID 0000.0001)          No. starts:        7200
(PID.TID 0000.0001)           No. stops:        7200
(PID.TID 0000.0001)   Seconds in section "MOM_CORRECTION_STEP [FORWARD_STEP]":
(PID.TID 0000.0001)           User time:   2.9499999999997044
(PID.TID 0000.0001)         System time:   0.0000000000000000
(PID.TID 0000.0001)     Wall clock time:   2.9405281543731689
(PID.TID 0000.0001)          No. starts:        7200
(PID.TID 0000.0001)           No. stops:        7200
(PID.TID 0000.0001)   Seconds in section "INTEGR_CONTINUITY   [FORWARD_STEP]":
(PID.TID 0000.0001)           User time:   1.5000000000000568
(PID.TID 0000.0001)         System time:   0.0000000000000000
(PID.TID 0000.0001)     Wall clock time:   1.4563744068145752
(PID.TID 0000.0001)          No. starts:        7200
(PID.TID 0000.0001)           No. stops:        7200
(PID.TID 0000.0001)   Seconds in section "BLOCKING_EXCHANGES  [FORWARD_STEP]":
(PID.TID 0000.0001)           User time:   7.7299999999954139
(PID.TID 0000.0001)         System time:   1.0000000000000009E-002
(PID.TID 0000.0001)     Wall clock time:   7.7342975139617920
(PID.TID 0000.0001)          No. starts:       14400
(PID.TID 0000.0001)           No. stops:       14400
(PID.TID 0000.0001)   Seconds in section "THERMODYNAMICS      [FORWARD_STEP]":
(PID.TID 0000.0001)           User time:   72.519999999978666
(PID.TID 0000.0001)         System time:  0.12000000000000005
(PID.TID 0000.0001)     Wall clock time:   72.893802165985107
(PID.TID 0000.0001)          No. starts:        7200
(PID.TID 0000.0001)           No. stops:        7200
(PID.TID 0000.0001)   Seconds in section "TRC_CORRECTION_STEP [FORWARD_STEP]":
(PID.TID 0000.0001)           User time:   7.9999999999984084E-002
(PID.TID 0000.0001)         System time:   0.0000000000000000
(PID.TID 0000.0001)     Wall clock time:   6.6300868988037109E-002
(PID.TID 0000.0001)          No. starts:        7200
(PID.TID 0000.0001)           No. stops:        7200
(PID.TID 0000.0001)   Seconds in section "MONITOR             [FORWARD_STEP]":
(PID.TID 0000.0001)           User time:  0.12000000000000455
(PID.TID 0000.0001)         System time:   0.0000000000000000
(PID.TID 0000.0001)     Wall clock time:  0.10931849479675293
(PID.TID 0000.0001)          No. starts:        7200
(PID.TID 0000.0001)           No. stops:        7200
(PID.TID 0000.0001)   Seconds in section "DO_THE_MODEL_IO     [FORWARD_STEP]":
(PID.TID 0000.0001)           User time:  0.21000000000000796
(PID.TID 0000.0001)         System time:   3.0000000000000027E-002
(PID.TID 0000.0001)     Wall clock time:  0.82993602752685547
(PID.TID 0000.0001)          No. starts:        7200
(PID.TID 0000.0001)           No. stops:        7200
(PID.TID 0000.0001)   Seconds in section "DO_WRITE_PICKUP     [FORWARD_STEP]":
(PID.TID 0000.0001)           User time:  0.12999999999993861
(PID.TID 0000.0001)         System time:   0.0000000000000000
(PID.TID 0000.0001)     Wall clock time:  0.13718938827514648
(PID.TID 0000.0001)          No. starts:        7200
(PID.TID 0000.0001)           No. stops:        7200
(PID.TID 0000.0001) // ======================================================
(PID.TID 0000.0001) // Tile <-> Tile communication statistics
(PID.TID 0000.0001) // ======================================================
(PID.TID 0000.0001) // o Tile number: 000001
(PID.TID 0000.0001) //         No. X exchanges =              0
(PID.TID 0000.0001) //            Max. X spins =              0
(PID.TID 0000.0001) //            Min. X spins =     1000000000
(PID.TID 0000.0001) //          Total. X spins =              0
(PID.TID 0000.0001) //            Avg. X spins =       0.00E+00
(PID.TID 0000.0001) //         No. Y exchanges =              0
(PID.TID 0000.0001) //            Max. Y spins =              0
(PID.TID 0000.0001) //            Min. Y spins =     1000000000
(PID.TID 0000.0001) //          Total. Y spins =              0
(PID.TID 0000.0001) //            Avg. Y spins =       0.00E+00
(PID.TID 0000.0001) // o Thread number: 000001
(PID.TID 0000.0001) //            No. barriers =        1343016
(PID.TID 0000.0001) //      Max. barrier spins =              1
(PID.TID 0000.0001) //      Min. barrier spins =              1
(PID.TID 0000.0001) //     Total barrier spins =        1343016
(PID.TID 0000.0001) //      Avg. barrier spins =       1.00E+00
PROGRAM MAIN: Execution ended Normally
