(PID.TID 0001.0001) ** Warning ** DIAGNOSTICS_READPARMS: ignores "data.diagnostics" file since
(PID.TID 0001.0001) ** Warning ** DIAGNOSTICS_READPARMS: useDiagnostics= F (set from "data.pkg")
