(PID.TID 0000.0001) *** ERROR ***  MDS_READ_SEC_YZ: Files DO not exist
