(PID.TID 0000.0001) 
(PID.TID 0000.0001) // ======================================================
(PID.TID 0000.0001) //                      MITgcm UV
(PID.TID 0000.0001) //                      =========
(PID.TID 0000.0001) // ======================================================
(PID.TID 0000.0001) // execution environment starting up...
(PID.TID 0000.0001) 
(PID.TID 0000.0001) // MITgcmUV version:  checkpoint65d
(PID.TID 0000.0001) // Build user:        hugke729
(PID.TID 0000.0001) // Build host:        hugke729
(PID.TID 0000.0001) // Build date:        Mon Apr 10 14:21:54 PDT 2017
(PID.TID 0000.0001) 
(PID.TID 0000.0001) // =======================================================
(PID.TID 0000.0001) // Execution Environment parameter file "eedata"
(PID.TID 0000.0001) // =======================================================
(PID.TID 0000.0001) ># Example "eedata" file
(PID.TID 0000.0001) ># Lines beginning "#" are comments
(PID.TID 0000.0001) ># nTx - No. threads per process in X
(PID.TID 0000.0001) ># nTy - No. threads per process in Y
(PID.TID 0000.0001) > &EEPARMS
(PID.TID 0000.0001) > /
(PID.TID 0000.0001) ># Note: Some systems use & as the
(PID.TID 0000.0001) ># namelist terminator. Other systems
(PID.TID 0000.0001) ># use a / character (as shown here).
(PID.TID 0000.0001) 
(PID.TID 0000.0001) // =======================================================
(PID.TID 0000.0001) // Computational Grid Specification ( see files "SIZE.h" )
(PID.TID 0000.0001) //                                  ( and "eedata"       )
(PID.TID 0000.0001) // =======================================================
(PID.TID 0000.0001)      nPx =    1 ; /* No. processes in X */
(PID.TID 0000.0001)      nPy =    1 ; /* No. processes in Y */
(PID.TID 0000.0001)      nSx =    1 ; /* No. tiles in X per process */
(PID.TID 0000.0001)      nSy =    1 ; /* No. tiles in Y per process */
(PID.TID 0000.0001)      sNx =  200 ; /* Tile size in X */
(PID.TID 0000.0001)      sNy =    1 ; /* Tile size in Y */
(PID.TID 0000.0001)      OLx =    2 ; /* Tile overlap distance in X */
(PID.TID 0000.0001)      OLy =    2 ; /* Tile overlap distance in Y */
(PID.TID 0000.0001)      nTx =    1 ; /* No. threads in X per process */
(PID.TID 0000.0001)      nTy =    1 ; /* No. threads in Y per process */
(PID.TID 0000.0001)       Nr =  100 ; /* No. levels in the vertical   */
(PID.TID 0000.0001)       Nx =  200 ; /* Total domain size in X ( = nPx*nSx*sNx ) */
(PID.TID 0000.0001)       Ny =    1 ; /* Total domain size in Y ( = nPy*nSy*sNy ) */
(PID.TID 0000.0001)   nTiles =    1 ; /* Total no. tiles per process ( = nSx*nSy ) */
(PID.TID 0000.0001)   nProcs =    1 ; /* Total no. processes ( = nPx*nPy ) */
(PID.TID 0000.0001) nThreads =    1 ; /* Total no. threads per process ( = nTx*nTy ) */
(PID.TID 0000.0001) usingMPI =    F ; /* Flag used to control whether MPI is in use */
(PID.TID 0000.0001)                   /*  note: To execute a program with MPI calls */
(PID.TID 0000.0001)                   /*  it must be launched appropriately e.g     */
(PID.TID 0000.0001)                   /*  "mpirun -np 64 ......"                    */
(PID.TID 0000.0001) useCoupler=    F ;/* Flag used to control communications with   */
(PID.TID 0000.0001)                   /*  other model components, through a coupler */
(PID.TID 0000.0001) debugMode =    F ; /* print debug msg. (sequence of S/R calls)  */
(PID.TID 0000.0001) printMapIncludesZeros=    F ; /* print zeros in Std.Output maps */
(PID.TID 0000.0001) maxLengthPrt1D=   65 /* maxLength of 1D array printed to StdOut */
(PID.TID 0000.0001) 
(PID.TID 0000.0001) // ======================================================
(PID.TID 0000.0001) // Mapping of tiles to threads
(PID.TID 0000.0001) // ======================================================
(PID.TID 0000.0001) // -o- Thread   1, tiles (   1:   1,   1:   1)
(PID.TID 0000.0001) 
(PID.TID 0000.0001) // ======================================================
(PID.TID 0000.0001) // Tile <-> Tile connectvity table
(PID.TID 0000.0001) // ======================================================
(PID.TID 0000.0001) // Tile number: 000001 (process no. = 000000)
(PID.TID 0000.0001) //        WEST: Tile = 000001, Process = 000000, Comm = put
(PID.TID 0000.0001) //                bi = 000001, bj = 000001
(PID.TID 0000.0001) //        EAST: Tile = 000001, Process = 000000, Comm = put
(PID.TID 0000.0001) //                bi = 000001, bj = 000001
(PID.TID 0000.0001) //       SOUTH: Tile = 000001, Process = 000000, Comm = put
(PID.TID 0000.0001) //                bi = 000001, bj = 000001
(PID.TID 0000.0001) //       NORTH: Tile = 000001, Process = 000000, Comm = put
(PID.TID 0000.0001) //                bi = 000001, bj = 000001
(PID.TID 0000.0001) 
(PID.TID 0000.0001)  INI_PARMS: opening model parameter file "data"
(PID.TID 0000.0001)  OPEN_COPY_DATA_FILE: opening file data
(PID.TID 0000.0001) // =======================================================
(PID.TID 0000.0001) // Parameter file "data"
(PID.TID 0000.0001) // =======================================================
(PID.TID 0000.0001) ># ====================
(PID.TID 0000.0001) ># | Model parameters |
(PID.TID 0000.0001) ># ====================
(PID.TID 0000.0001) >#
(PID.TID 0000.0001) ># See src/ini_parms.F for possible parameters.
(PID.TID 0000.0001) >#
(PID.TID 0000.0001) ># Continuous equation parameters
(PID.TID 0000.0001) > &PARM01
(PID.TID 0000.0001) > tRefFile='Tref.bin'
(PID.TID 0000.0001) > sRef= 25*35.,
(PID.TID 0000.0001) > viscAz=1.E-5,
(PID.TID 0000.0001) > viscAh=1.E-4,
(PID.TID 0000.0001) > no_slip_sides=.FALSE.,
(PID.TID 0000.0001) > no_slip_bottom=.FALSE.,
(PID.TID 0000.0001) > viscA4=0.E12,
(PID.TID 0000.0001) > diffKhT=1.E-4,
(PID.TID 0000.0001) > diffKzT=1.E-5,
(PID.TID 0000.0001) > diffKhS=1.E3,
(PID.TID 0000.0001) > diffKzS=1.E-5,
(PID.TID 0000.0001) > f0=0.E-4,
(PID.TID 0000.0001) > beta=0.0E-11,
(PID.TID 0000.0001) > tAlpha=2.E-4,
(PID.TID 0000.0001) > sBeta =0.E-4,
(PID.TID 0000.0001) > gravity=9.81,
(PID.TID 0000.0001) > gBaro=9.81,
(PID.TID 0000.0001) > rigidLid=.FALSE.,
(PID.TID 0000.0001) > implicitFreeSurface=.TRUE.,
(PID.TID 0000.0001) > eosType='LINEAR',
(PID.TID 0000.0001) > nonHydrostatic=.FALSE.,
(PID.TID 0000.0001) > readBinaryPrec=64,
(PID.TID 0000.0001) > useSingleCpuIO=.TRUE.
(PID.TID 0000.0001) > writeBinaryPrec=64,
(PID.TID 0000.0001) > writeStatePrec=64,
(PID.TID 0000.0001) > saltStepping=.FALSE.,
(PID.TID 0000.0001) ># minimum cell fraction.  This reduces steppiness..
(PID.TID 0000.0001) >  hFacMin=0.1,
(PID.TID 0000.0001) >  exactConserv=.FALSE.,
(PID.TID 0000.0001) >  implicitDiffusion=.TRUE.
(PID.TID 0000.0001) >  implicitViscosity=.TRUE.
(PID.TID 0000.0001) ># Superbee on:
(PID.TID 0000.0001) > tempAdvScheme=77,
(PID.TID 0000.0001) > staggerTimeStep=.TRUE.,
(PID.TID 0000.0001) >/
(PID.TID 0000.0001) >
(PID.TID 0000.0001) ># Elliptic solver parameters
(PID.TID 0000.0001) > &PARM02
(PID.TID 0000.0001) > cg2dMaxIters=1000,
(PID.TID 0000.0001) > cg2dTargetResidual=1.E-13,
(PID.TID 0000.0001) > cg3dMaxIters=400,
(PID.TID 0000.0001) > cg3dTargetResidual=1.E-13,
(PID.TID 0000.0001) >/
(PID.TID 0000.0001) >
(PID.TID 0000.0001) ># Time stepping parameters
(PID.TID 0000.0001) > &PARM03
(PID.TID 0000.0001) > niter0=0,
(PID.TID 0000.0001) ># times are in s
(PID.TID 0000.0001) > startTime=0,
(PID.TID 0000.0001) > endTime=108000,
(PID.TID 0000.0001) > deltaT=15,
(PID.TID 0000.0001) > abEps=0.1,
(PID.TID 0000.0001) ># once per tide checkpoint...
(PID.TID 0000.0001) > pChkptFreq=21600,
(PID.TID 0000.0001) > chkptFreq=0.0,
(PID.TID 0000.0001) > dumpFreq=7200,
(PID.TID 0000.0001) > monitorFreq=7200,
(PID.TID 0000.0001) ># Forcing for boundary condition files
(PID.TID 0000.0001) > periodicExternalForcing=.FALSE.,
(PID.TID 0000.0001) >/
(PID.TID 0000.0001) >
(PID.TID 0000.0001) ># Gridding parameters
(PID.TID 0000.0001) > &PARM04
(PID.TID 0000.0001) > usingCartesianGrid=.TRUE.,
(PID.TID 0000.0001) > usingSphericalPolarGrid=.FALSE.,
(PID.TID 0000.0001) > delXfile='delXvar.bin',
(PID.TID 0000.0001) > delY=5.e3,
(PID.TID 0000.0001) > delRfile = 'delZvar.bin',
(PID.TID 0000.0001) >/
(PID.TID 0000.0001) >
(PID.TID 0000.0001) ># Input datasets
(PID.TID 0000.0001) > &PARM05
(PID.TID 0000.0001) > bathyFile='topo.bin',
(PID.TID 0000.0001) > hydrogThetaFile='T0.bin',
(PID.TID 0000.0001) > checkIniTemp=.FALSE.,
(PID.TID 0000.0001) > uVelInitFile='U0.bin',
(PID.TID 0000.0001) > /
(PID.TID 0000.0001) 
(PID.TID 0000.0001)  INI_PARMS ; starts to read PARM01
(PID.TID 0000.0001)  INI_PARMS ; read PARM01 : OK
(PID.TID 0000.0001)  INI_PARMS ; starts to read PARM02
(PID.TID 0000.0001)  INI_PARMS ; read PARM02 : OK
(PID.TID 0000.0001)  INI_PARMS ; starts to read PARM03
(PID.TID 0000.0001)  INI_PARMS ; read PARM03 : OK
(PID.TID 0000.0001)  INI_PARMS ; starts to read PARM04
(PID.TID 0000.0001)  INI_PARMS ; read PARM04 : OK
(PID.TID 0000.0001)  INI_PARMS ; starts to read PARM05
(PID.TID 0000.0001)  INI_PARMS ; read PARM05 : OK
(PID.TID 0000.0001)  INI_PARMS: finished reading file "data"
(PID.TID 0000.0001)  PACKAGES_BOOT: opening data.pkg
(PID.TID 0000.0001)  OPEN_COPY_DATA_FILE: opening file data.pkg
(PID.TID 0000.0001) // =======================================================
(PID.TID 0000.0001) // Parameter file "data.pkg"
(PID.TID 0000.0001) // =======================================================
(PID.TID 0000.0001) ># Packages
(PID.TID 0000.0001) > &PACKAGES
(PID.TID 0000.0001) > useOBCS=.TRUE.,
(PID.TID 0000.0001) > useKL10=.TRUE.,
(PID.TID 0000.0001) > useDIAGNOSTICS=.FALSE.,
(PID.TID 0000.0001) > useMNC=.FALSE.,
(PID.TID 0000.0001) > /
(PID.TID 0000.0001) 
(PID.TID 0000.0001)  PACKAGES_BOOT: finished reading data.pkg
(PID.TID 0000.0001)  PACKAGES_BOOT: On/Off package Summary
 --------  pkgs with a standard "usePKG" On/Off switch in "data.pkg":  --------
 pkg/obcs                 compiled   and   used ( useOBCS                  = T )
 pkg/kl10                 compiled   and   used ( useKL10                  = T )
 -------- pkgs without standard "usePKG" On/Off switch in "data.pkg":  --------
 pkg/generic_advdiff      compiled   and   used ( useGAD                   = T )
 pkg/mom_common           compiled   and   used ( momStepping              = T )
 pkg/mom_vecinv           compiled but not used ( +vectorInvariantMomentum = F )
 pkg/mom_fluxform         compiled   and   used ( & not vectorInvariantMom = T )
 pkg/monitor              compiled   and   used ( monitorFreq > 0.         = T )
 pkg/debug                compiled but not used ( debugMode                = F )
 pkg/rw                   compiled   and   used
 pkg/mdsio                compiled   and   used
(PID.TID 0000.0001)  PACKAGES_BOOT: End of package Summary
(PID.TID 0000.0001) 
(PID.TID 0000.0001)  OBCS_READPARMS: opening data.obcs
(PID.TID 0000.0001)  OPEN_COPY_DATA_FILE: opening file data.obcs
(PID.TID 0000.0001) // =======================================================
(PID.TID 0000.0001) // Parameter file "data.obcs"
(PID.TID 0000.0001) // =======================================================
(PID.TID 0000.0001) ># Open-boundaries
(PID.TID 0000.0001) > &OBCS_PARM01
(PID.TID 0000.0001) > OB_Iwest=1*1,
(PID.TID 0000.0001) > OB_Ieast=1*-1,
(PID.TID 0000.0001) > OB_Jnorth=100*0,
(PID.TID 0000.0001) > OB_Jsouth=100*0,
(PID.TID 0000.0001) > useOBCSsponge=.TRUE.,
(PID.TID 0000.0001) > OBEuFile='U_in.bin',
(PID.TID 0000.0001) > OBWuFile='U_in.bin',
(PID.TID 0000.0001) > OBEtFile='TE.bin',
(PID.TID 0000.0001) > OBWtFile='TW.bin',
(PID.TID 0000.0001) > useOBCSprescribe=.TRUE.,
(PID.TID 0000.0001) > /
(PID.TID 0000.0001) >
(PID.TID 0000.0001) ># Orlanski parameters
(PID.TID 0000.0001) > &OBCS_PARM02
(PID.TID 0000.0001) >/
(PID.TID 0000.0001) >
(PID.TID 0000.0001) ># Sponge layer parameters
(PID.TID 0000.0001) > &OBCS_PARM03
(PID.TID 0000.0001) > Urelaxobcsinner=1000.,
(PID.TID 0000.0001) > Urelaxobcsbound=100.,
(PID.TID 0000.0001) > Vrelaxobcsinner=1000.0,
(PID.TID 0000.0001) > Vrelaxobcsbound=100.0,
(PID.TID 0000.0001) > spongeThickness=10,
(PID.TID 0000.0001) > /
(PID.TID 0000.0001) 
(PID.TID 0000.0001)  OBCS_READPARMS: finished reading data.obcs
(PID.TID 0000.0001)  OB_indexUnset = /* unset OB index value (i.e. no OB) */
(PID.TID 0000.0001)                       0
(PID.TID 0000.0001)     ;
(PID.TID 0000.0001)  Northern OB global indices : OB_Jnorth =
(PID.TID 0000.0001)   200 @        0                            /* I =  1:200 */
(PID.TID 0000.0001)  Southern OB global indices : OB_Jsouth =
(PID.TID 0000.0001)   200 @        0                            /* I =  1:200 */
(PID.TID 0000.0001)  Eastern  OB global indices : OB_Ieast =
(PID.TID 0000.0001)                     200                     /* J =  1 */
(PID.TID 0000.0001)  Western  OB global indices : OB_Iwest =
(PID.TID 0000.0001)                       1                     /* J =  1 */
(PID.TID 0000.0001) 
(PID.TID 0000.0001)  KL10_READPARMS: opening data.kl10
(PID.TID 0000.0001)  OPEN_COPY_DATA_FILE: opening file data.kl10
(PID.TID 0000.0001) // =======================================================
(PID.TID 0000.0001) // Parameter file "data.kl10"
(PID.TID 0000.0001) // =======================================================
(PID.TID 0000.0001) ># =====================================================================
(PID.TID 0000.0001) ># | Parameters for Klymak and Legg (2010) vertical mixing scheme      |
(PID.TID 0000.0001) ># =====================================================================
(PID.TID 0000.0001) > &KL10_PARM01
(PID.TID 0000.0001) > KLwriteState=.TRUE.,
(PID.TID 0000.0001) >/
(PID.TID 0000.0001) 
(PID.TID 0000.0001)  KL10_READPARMS: finished reading data.kl10
(PID.TID 0000.0001) SET_PARMS: done
(PID.TID 0000.0001)  MDS_READVEC_LOC: open file: delXvar.bin
(PID.TID 0000.0001) S/R LOAD_GRID_SPACING: delX loaded from file: delXvar.bin
(PID.TID 0000.0001)  MDS_READVEC_LOC: open file: delZvar.bin
(PID.TID 0000.0001) S/R LOAD_GRID_SPACING: delR loaded from file: delZvar.bin
(PID.TID 0000.0001) Enter INI_VERTICAL_GRID: setInterFDr=    T ; setCenterDr=    F
(PID.TID 0000.0001) %MON XC_max                       =   9.9471849328752E+04
(PID.TID 0000.0001) %MON XC_min                       =   6.3164731900833E+02
(PID.TID 0000.0001) %MON XC_mean                      =   5.2906107272275E+04
(PID.TID 0000.0001) %MON XC_sd                        =   2.2139310392762E+04
(PID.TID 0000.0001) %MON XG_max                       =   9.8943698657505E+04
(PID.TID 0000.0001) %MON XG_min                       =   0.0000000000000E+00
(PID.TID 0000.0001) %MON XG_mean                      =   5.2656107272275E+04
(PID.TID 0000.0001) %MON XG_sd                        =   2.2172561685063E+04
(PID.TID 0000.0001) %MON DXC_max                      =   1.2503953509116E+03
(PID.TID 0000.0001) %MON DXC_min                      =   2.0000000000000E+02
(PID.TID 0000.0001) %MON DXC_mean                     =   5.0000000000000E+02
(PID.TID 0000.0001) %MON DXC_sd                       =   2.8531736750525E+02
(PID.TID 0000.0001) %MON DXF_max                      =   1.2632946380167E+03
(PID.TID 0000.0001) %MON DXF_min                      =   2.0000000000000E+02
(PID.TID 0000.0001) %MON DXF_mean                     =   5.0000000000000E+02
(PID.TID 0000.0001) %MON DXF_sd                       =   2.8547066202794E+02
(PID.TID 0000.0001) %MON DXG_max                      =   1.2632946380167E+03
(PID.TID 0000.0001) %MON DXG_min                      =   2.0000000000000E+02
(PID.TID 0000.0001) %MON DXG_mean                     =   5.0000000000000E+02
(PID.TID 0000.0001) %MON DXG_sd                       =   2.8547066202794E+02
(PID.TID 0000.0001) %MON DXV_max                      =   1.2503953509116E+03
(PID.TID 0000.0001) %MON DXV_min                      =   2.0000000000000E+02
(PID.TID 0000.0001) %MON DXV_mean                     =   5.0000000000000E+02
(PID.TID 0000.0001) %MON DXV_sd                       =   2.8531736750525E+02
(PID.TID 0000.0001) %MON YC_max                       =   2.5000000000000E+03
(PID.TID 0000.0001) %MON YC_min                       =   2.5000000000000E+03
(PID.TID 0000.0001) %MON YC_mean                      =   2.5000000000000E+03
(PID.TID 0000.0001) %MON YC_sd                        =   0.0000000000000E+00
(PID.TID 0000.0001) %MON YG_max                       =   0.0000000000000E+00
(PID.TID 0000.0001) %MON YG_min                       =   0.0000000000000E+00
(PID.TID 0000.0001) %MON YG_mean                      =   0.0000000000000E+00
(PID.TID 0000.0001) %MON YG_sd                        =   0.0000000000000E+00
(PID.TID 0000.0001) %MON DYC_max                      =   5.0000000000000E+03
(PID.TID 0000.0001) %MON DYC_min                      =   5.0000000000000E+03
(PID.TID 0000.0001) %MON DYC_mean                     =   5.0000000000000E+03
(PID.TID 0000.0001) %MON DYC_sd                       =   0.0000000000000E+00
(PID.TID 0000.0001) %MON DYF_max                      =   5.0000000000000E+03
(PID.TID 0000.0001) %MON DYF_min                      =   5.0000000000000E+03
(PID.TID 0000.0001) %MON DYF_mean                     =   5.0000000000000E+03
(PID.TID 0000.0001) %MON DYF_sd                       =   0.0000000000000E+00
(PID.TID 0000.0001) %MON DYG_max                      =   5.0000000000000E+03
(PID.TID 0000.0001) %MON DYG_min                      =   5.0000000000000E+03
(PID.TID 0000.0001) %MON DYG_mean                     =   5.0000000000000E+03
(PID.TID 0000.0001) %MON DYG_sd                       =   0.0000000000000E+00
(PID.TID 0000.0001) %MON DYU_max                      =   5.0000000000000E+03
(PID.TID 0000.0001) %MON DYU_min                      =   5.0000000000000E+03
(PID.TID 0000.0001) %MON DYU_mean                     =   5.0000000000000E+03
(PID.TID 0000.0001) %MON DYU_sd                       =   0.0000000000000E+00
(PID.TID 0000.0001) %MON RA_max                       =   6.3164731900833E+06
(PID.TID 0000.0001) %MON RA_min                       =   1.0000000000000E+06
(PID.TID 0000.0001) %MON RA_mean                      =   2.5000000000000E+06
(PID.TID 0000.0001) %MON RA_sd                        =   1.4273533101397E+06
(PID.TID 0000.0001) %MON RAW_max                      =   6.2519767545581E+06
(PID.TID 0000.0001) %MON RAW_min                      =   1.0000000000000E+06
(PID.TID 0000.0001) %MON RAW_mean                     =   2.5000000000000E+06
(PID.TID 0000.0001) %MON RAW_sd                       =   1.4265868375263E+06
(PID.TID 0000.0001) %MON RAS_max                      =   6.3164731900833E+06
(PID.TID 0000.0001) %MON RAS_min                      =   1.0000000000000E+06
(PID.TID 0000.0001) %MON RAS_mean                     =   2.5000000000000E+06
(PID.TID 0000.0001) %MON RAS_sd                       =   1.4273533101397E+06
(PID.TID 0000.0001) %MON RAZ_max                      =   6.2519767545581E+06
(PID.TID 0000.0001) %MON RAZ_min                      =   1.0000000000000E+06
(PID.TID 0000.0001) %MON RAZ_mean                     =   2.5000000000000E+06
(PID.TID 0000.0001) %MON RAZ_sd                       =   1.4265868375263E+06
(PID.TID 0000.0001) %MON AngleCS_max                  =   1.0000000000000E+00
(PID.TID 0000.0001) %MON AngleCS_min                  =   1.0000000000000E+00
(PID.TID 0000.0001) %MON AngleCS_mean                 =   1.0000000000000E+00
(PID.TID 0000.0001) %MON AngleCS_sd                   =   0.0000000000000E+00
(PID.TID 0000.0001) %MON AngleSN_max                  =   0.0000000000000E+00
(PID.TID 0000.0001) %MON AngleSN_min                  =   0.0000000000000E+00
(PID.TID 0000.0001) %MON AngleSN_mean                 =   0.0000000000000E+00
(PID.TID 0000.0001) %MON AngleSN_sd                   =   0.0000000000000E+00
(PID.TID 0000.0001)  MDS_READVEC_LOC: open file: Tref.bin
(PID.TID 0000.0001) S/R LOAD_REF_FILES: tRef loaded from file: Tref.bin
(PID.TID 0000.0001)  MDS_READ_FIELD: opening global file: topo.bin
(PID.TID 0000.0001) // =======================================================
(PID.TID 0000.0001) // Field Model R_low (ini_masks_etc)
(PID.TID 0000.0001) // CMIN =         -2.000000000000000E+02
(PID.TID 0000.0001) // CMAX =         -1.600000000000000E+02
(PID.TID 0000.0001) // CINT =          1.481481481481481E+00
(PID.TID 0000.0001) // SYMBOLS (CMIN->CMAX): -abcdefghijklmnopqrstuvwxyz+
(PID.TID 0000.0001) //                  0.0: .
(PID.TID 0000.0001) // RANGE I (Lo:Hi:Step):(    -1:   202:     1)
(PID.TID 0000.0001) // RANGE J (Lo:Hi:Step):(     3:    -1:    -1)
(PID.TID 0000.0001) // RANGE K (Lo:Hi:Step):(   1:   1:   1)
(PID.TID 0000.0001) // =======================================================
(PID.TID 0000.0001) K =   1
(PID.TID 0000.0001) //                I=8       I=18      I=28      I=38      I=48      I=58      I=68      I=78      I=88      I=98      I=108     I=118     I=128     I=138     I=148     I=158     I=168     I=178     I=188     I=198
(PID.TID 0000.0001) // |--J--|101234567|901234567|901234567|901234567|901234567|901234567|901234567|901234567|901234567|901234567|901234567|901234567|901234567|901234567|901234567|901234567|901234567|901234567|901234567|901234567|9012
(PID.TID 0000.0001) //      3 --------------------------------------------------------------------------aaaabbccdefghiklnpqstvwxyz++++zyxwvtsqpnlkihgfedccbbaaaa--------------------------------------------------------------------------
(PID.TID 0000.0001) //      2 --------------------------------------------------------------------------aaaabbccdefghiklnpqstvwxyz++++zyxwvtsqpnlkihgfedccbbaaaa--------------------------------------------------------------------------
(PID.TID 0000.0001) //      1 --------------------------------------------------------------------------aaaabbccdefghiklnpqstvwxyz++++zyxwvtsqpnlkihgfedccbbaaaa--------------------------------------------------------------------------
(PID.TID 0000.0001) //      0 --------------------------------------------------------------------------aaaabbccdefghiklnpqstvwxyz++++zyxwvtsqpnlkihgfedccbbaaaa--------------------------------------------------------------------------
(PID.TID 0000.0001) //     -1 --------------------------------------------------------------------------aaaabbccdefghiklnpqstvwxyz++++zyxwvtsqpnlkihgfedccbbaaaa--------------------------------------------------------------------------
(PID.TID 0000.0001) // =======================================================
(PID.TID 0000.0001) // END OF FIELD                                          =
(PID.TID 0000.0001) // =======================================================
(PID.TID 0000.0001) 
(PID.TID 0000.0001) // =======================================================
(PID.TID 0000.0001) // Field Model Ro_surf (ini_masks_etc)
(PID.TID 0000.0001) // CMIN =         -2.753353101070388E-14
(PID.TID 0000.0001) // CMAX =          8.615330671091215E-14
(PID.TID 0000.0001) // CINT =          4.210623619319112E-15
(PID.TID 0000.0001) // SYMBOLS (CMIN->CMAX): -abcdefghijklmnopqrstuvwxyz+
(PID.TID 0000.0001) //                  0.0: .
(PID.TID 0000.0001) // RANGE I (Lo:Hi:Step):(    -1:   202:     1)
(PID.TID 0000.0001) // RANGE J (Lo:Hi:Step):(     3:    -1:    -1)
(PID.TID 0000.0001) // RANGE K (Lo:Hi:Step):(   1:   1:   1)
(PID.TID 0000.0001) // =======================================================
(PID.TID 0000.0001) K =   1
(PID.TID 0000.0001) //                I=8       I=18      I=28      I=38      I=48      I=58      I=68      I=78      I=88      I=98      I=108     I=118     I=128     I=138     I=148     I=158     I=168     I=178     I=188     I=198
(PID.TID 0000.0001) // |--J--|101234567|901234567|901234567|901234567|901234567|901234567|901234567|901234567|901234567|901234567|901234567|901234567|901234567|901234567|901234567|901234567|901234567|901234567|901234567|901234567|9012
(PID.TID 0000.0001) //      3 ------------------g-g-gg--g---g-g-g-g--ggg---g-g-ggg---gggggg--g-g------gnngggg-gngggggnn+ttttng------------gntttt+nngggggng-ggggnng------g-g--gggggg---ggg-g-g---ggg--g-g-g-g---g--gg-g-g------------------
(PID.TID 0000.0001) //      2 ------------------g-g-gg--g---g-g-g-g--ggg---g-g-ggg---gggggg--g-g------gnngggg-gngggggnn+ttttng------------gntttt+nngggggng-ggggnng------g-g--gggggg---ggg-g-g---ggg--g-g-g-g---g--gg-g-g------------------
(PID.TID 0000.0001) //      1 ------------------g-g-gg--g---g-g-g-g--ggg---g-g-ggg---gggggg--g-g------gnngggg-gngggggnn+ttttng------------gntttt+nngggggng-ggggnng------g-g--gggggg---ggg-g-g---ggg--g-g-g-g---g--gg-g-g------------------
(PID.TID 0000.0001) //      0 ------------------g-g-gg--g---g-g-g-g--ggg---g-g-ggg---gggggg--g-g------gnngggg-gngggggnn+ttttng------------gntttt+nngggggng-ggggnng------g-g--gggggg---ggg-g-g---ggg--g-g-g-g---g--gg-g-g------------------
(PID.TID 0000.0001) //     -1 ------------------g-g-gg--g---g-g-g-g--ggg---g-g-ggg---gggggg--g-g------gnngggg-gngggggnn+ttttng------------gntttt+nngggggng-ggggnng------g-g--gggggg---ggg-g-g---ggg--g-g-g-g---g--gg-g-g------------------
(PID.TID 0000.0001) // =======================================================
(PID.TID 0000.0001) // END OF FIELD                                          =
(PID.TID 0000.0001) // =======================================================
(PID.TID 0000.0001) 
(PID.TID 0000.0001) // =======================================================
(PID.TID 0000.0001) // Field hFacC at iteration          0
(PID.TID 0000.0001) // CMIN =          1.000000000000000E+00
(PID.TID 0000.0001) // CMAX =          1.000000000000000E+00
(PID.TID 0000.0001) // CINT =          0.000000000000000E+00
(PID.TID 0000.0001) // SYMBOLS (CMIN->CMAX): -abcdefghijklmnopqrstuvwxyz+
(PID.TID 0000.0001) //                  0.0: .
(PID.TID 0000.0001) // RANGE I (Lo:Hi:Step):(    -1:   202:     1)
(PID.TID 0000.0001) // RANGE J (Lo:Hi:Step):(     3:    -1:    -1)
(PID.TID 0000.0001) // RANGE K (Lo:Hi:Step):(   1:   1:   1)
(PID.TID 0000.0001) // =======================================================
(PID.TID 0000.0001) // =======================================================
(PID.TID 0000.0001) // END OF FIELD                                          =
(PID.TID 0000.0001) // =======================================================
(PID.TID 0000.0001) 
(PID.TID 0000.0001) // =======================================================
(PID.TID 0000.0001) // Field hFacW at iteration          0
(PID.TID 0000.0001) // CMIN =          1.000000000000000E+00
(PID.TID 0000.0001) // CMAX =          1.000000000000000E+00
(PID.TID 0000.0001) // CINT =          0.000000000000000E+00
(PID.TID 0000.0001) // SYMBOLS (CMIN->CMAX): -abcdefghijklmnopqrstuvwxyz+
(PID.TID 0000.0001) //                  0.0: .
(PID.TID 0000.0001) // RANGE I (Lo:Hi:Step):(    -1:   202:     1)
(PID.TID 0000.0001) // RANGE J (Lo:Hi:Step):(     3:    -1:    -1)
(PID.TID 0000.0001) // RANGE K (Lo:Hi:Step):(   1:   1:   1)
(PID.TID 0000.0001) // =======================================================
(PID.TID 0000.0001) // =======================================================
(PID.TID 0000.0001) // END OF FIELD                                          =
(PID.TID 0000.0001) // =======================================================
(PID.TID 0000.0001) 
(PID.TID 0000.0001) // =======================================================
(PID.TID 0000.0001) // Field hFacS at iteration          0
(PID.TID 0000.0001) // CMIN =          1.000000000000000E+00
(PID.TID 0000.0001) // CMAX =          1.000000000000000E+00
(PID.TID 0000.0001) // CINT =          0.000000000000000E+00
(PID.TID 0000.0001) // SYMBOLS (CMIN->CMAX): -abcdefghijklmnopqrstuvwxyz+
(PID.TID 0000.0001) //                  0.0: .
(PID.TID 0000.0001) // RANGE I (Lo:Hi:Step):(    -1:   202:     1)
(PID.TID 0000.0001) // RANGE J (Lo:Hi:Step):(     3:    -1:    -1)
(PID.TID 0000.0001) // RANGE K (Lo:Hi:Step):(   1:   1:   1)
(PID.TID 0000.0001) // =======================================================
(PID.TID 0000.0001) // =======================================================
(PID.TID 0000.0001) // END OF FIELD                                          =
(PID.TID 0000.0001) // =======================================================
(PID.TID 0000.0001) 
(PID.TID 0000.0001) GAD_INIT_FIXED: GAD_OlMinSize=  2  0  1
(PID.TID 0000.0001) 
(PID.TID 0000.0001) // ===================================
(PID.TID 0000.0001) // GAD parameters :
(PID.TID 0000.0001) // ===================================
(PID.TID 0000.0001) tempAdvScheme =   /* Temp. Horiz.Advection scheme selector */
(PID.TID 0000.0001)                      77
(PID.TID 0000.0001)     ;
(PID.TID 0000.0001) tempVertAdvScheme =   /* Temp. Vert. Advection scheme selector */
(PID.TID 0000.0001)                      77
(PID.TID 0000.0001)     ;
(PID.TID 0000.0001) tempMultiDimAdvec =   /* use Muti-Dim Advec method for Temp */
(PID.TID 0000.0001)                   T
(PID.TID 0000.0001)     ;
(PID.TID 0000.0001) tempSOM_Advection = /* use 2nd Order Moment Advection for Temp */
(PID.TID 0000.0001)                   F
(PID.TID 0000.0001)     ;
(PID.TID 0000.0001) AdamsBashforthGt = /* apply Adams-Bashforth extrapolation on Gt */
(PID.TID 0000.0001)                   F
(PID.TID 0000.0001)     ;
(PID.TID 0000.0001) AdamsBashforth_T = /* apply Adams-Bashforth extrapolation on Temp */
(PID.TID 0000.0001)                   F
(PID.TID 0000.0001)     ;
(PID.TID 0000.0001) saltAdvScheme =   /* Salt. Horiz.advection scheme selector */
(PID.TID 0000.0001)                       2
(PID.TID 0000.0001)     ;
(PID.TID 0000.0001) saltVertAdvScheme =   /* Salt. Vert. Advection scheme selector */
(PID.TID 0000.0001)                       2
(PID.TID 0000.0001)     ;
(PID.TID 0000.0001) saltMultiDimAdvec =   /* use Muti-Dim Advec method for Salt */
(PID.TID 0000.0001)                   F
(PID.TID 0000.0001)     ;
(PID.TID 0000.0001) saltSOM_Advection = /* use 2nd Order Moment Advection for Salt */
(PID.TID 0000.0001)                   F
(PID.TID 0000.0001)     ;
(PID.TID 0000.0001) AdamsBashforthGs = /* apply Adams-Bashforth extrapolation on Gs */
(PID.TID 0000.0001)                   F
(PID.TID 0000.0001)     ;
(PID.TID 0000.0001) AdamsBashforth_S = /* apply Adams-Bashforth extrapolation on Salt */
(PID.TID 0000.0001)                   F
(PID.TID 0000.0001)     ;
(PID.TID 0000.0001) // ===================================
(PID.TID 0000.0001) %MON fCori_max                    =   0.0000000000000E+00
(PID.TID 0000.0001) %MON fCori_min                    =   0.0000000000000E+00
(PID.TID 0000.0001) %MON fCori_mean                   =   0.0000000000000E+00
(PID.TID 0000.0001) %MON fCori_sd                     =   0.0000000000000E+00
(PID.TID 0000.0001) %MON fCoriG_max                   =   0.0000000000000E+00
(PID.TID 0000.0001) %MON fCoriG_min                   =   0.0000000000000E+00
(PID.TID 0000.0001) %MON fCoriG_mean                  =   0.0000000000000E+00
(PID.TID 0000.0001) %MON fCoriG_sd                    =   0.0000000000000E+00
(PID.TID 0000.0001) %MON fCoriCos_max                 =   0.0000000000000E+00
(PID.TID 0000.0001) %MON fCoriCos_min                 =   0.0000000000000E+00
(PID.TID 0000.0001) %MON fCoriCos_mean                =   0.0000000000000E+00
(PID.TID 0000.0001) %MON fCoriCos_sd                  =   0.0000000000000E+00
(PID.TID 0000.0001) INI_CG2D: CG2D normalisation factor =  2.0891347990989188E-04
(PID.TID 0000.0001) 
(PID.TID 0000.0001) // =======================================================
(PID.TID 0000.0001) // Model configuration
(PID.TID 0000.0001) // =======================================================
(PID.TID 0000.0001) //
(PID.TID 0000.0001) // "Physical" paramters ( PARM01 in namelist )
(PID.TID 0000.0001) //
(PID.TID 0000.0001) buoyancyRelation = /* Type of relation to get Buoyancy */
(PID.TID 0000.0001)               'OCEANIC'
(PID.TID 0000.0001)     ;
(PID.TID 0000.0001) fluidIsAir   =  /* fluid major constituent is Air */
(PID.TID 0000.0001)                   F
(PID.TID 0000.0001)     ;
(PID.TID 0000.0001) fluidIsWater =  /* fluid major constituent is Water */
(PID.TID 0000.0001)                   T
(PID.TID 0000.0001)     ;
(PID.TID 0000.0001) usingPCoords =  /* use p (or p*) vertical coordinate */
(PID.TID 0000.0001)                   F
(PID.TID 0000.0001)     ;
(PID.TID 0000.0001) usingZCoords =  /* use z (or z*) vertical coordinate */
(PID.TID 0000.0001)                   T
(PID.TID 0000.0001)     ;
(PID.TID 0000.0001) tRef =   /* Reference temperature profile ( oC or K ) */
(PID.TID 0000.0001)     6 @  1.500000000000000E+01,             /* K =  1:  6 */
(PID.TID 0000.0001)                 1.499933084687693E+01,      /* K =  7 */
(PID.TID 0000.0001)                 1.497717153877677E+01,      /* K =  8 */
(PID.TID 0000.0001)                 1.470721590167325E+01,      /* K =  9 */
(PID.TID 0000.0001)                 1.349735867339025E+01,      /* K = 10 */
(PID.TID 0000.0001)                 1.150264132660976E+01,      /* K = 11 */
(PID.TID 0000.0001)                 1.029278409832675E+01,      /* K = 12 */
(PID.TID 0000.0001)                 1.002282846122323E+01,      /* K = 13 */
(PID.TID 0000.0001)                 1.000066915312308E+01,      /* K = 14 */
(PID.TID 0000.0001)    86 @  1.000000000000000E+01              /* K = 15:100 */
(PID.TID 0000.0001)     ;
(PID.TID 0000.0001) sRef =   /* Reference salinity profile ( psu ) */
(PID.TID 0000.0001)   100 @  3.500000000000000E+01              /* K =  1:100 */
(PID.TID 0000.0001)     ;
(PID.TID 0000.0001) useStrainTensionVisc= /* Use StrainTension Form of Viscous Operator */
(PID.TID 0000.0001)                   F
(PID.TID 0000.0001)     ;
(PID.TID 0000.0001) useVariableVisc = /* Use variable horizontal viscosity */
(PID.TID 0000.0001)                   F
(PID.TID 0000.0001)     ;
(PID.TID 0000.0001) useHarmonicVisc = /* Use harmonic horizontal viscosity */
(PID.TID 0000.0001)                   T
(PID.TID 0000.0001)     ;
(PID.TID 0000.0001) useBiharmonicVisc= /* Use biharmonic horiz.  viscosity */
(PID.TID 0000.0001)                   F
(PID.TID 0000.0001)     ;
(PID.TID 0000.0001) useSmag3D = /* Use isotropic 3-D Smagorinsky viscosity */
(PID.TID 0000.0001)                   F
(PID.TID 0000.0001)     ;
(PID.TID 0000.0001) viscAh  =   /* Lateral harmonic viscosity ( m^2/s ) */
(PID.TID 0000.0001)                 1.000000000000000E-04
(PID.TID 0000.0001)     ;
(PID.TID 0000.0001) viscA4  =   /* Lateral biharmonic viscosity ( m^4/s ) */
(PID.TID 0000.0001)                 0.000000000000000E+00
(PID.TID 0000.0001)     ;
(PID.TID 0000.0001) no_slip_sides =  /* Viscous BCs: No-slip sides */
(PID.TID 0000.0001)                   F
(PID.TID 0000.0001)     ;
(PID.TID 0000.0001) sideDragFactor = /* side-drag scaling factor (non-dim) */
(PID.TID 0000.0001)                 2.000000000000000E+00
(PID.TID 0000.0001)     ;
(PID.TID 0000.0001) viscArNr = /* vertical profile of vertical viscosity ( m^2/s )*/
(PID.TID 0000.0001)   100 @  1.000000000000000E-05              /* K =  1:100 */
(PID.TID 0000.0001)     ;
(PID.TID 0000.0001) no_slip_bottom =  /* Viscous BCs: No-slip bottom */
(PID.TID 0000.0001)                   F
(PID.TID 0000.0001)     ;
(PID.TID 0000.0001) bottomDragLinear = /* linear bottom-drag coefficient ( m/s ) */
(PID.TID 0000.0001)                 0.000000000000000E+00
(PID.TID 0000.0001)     ;
(PID.TID 0000.0001) bottomDragQuadratic = /* quadratic bottom-drag coefficient (-) */
(PID.TID 0000.0001)                 0.000000000000000E+00
(PID.TID 0000.0001)     ;
(PID.TID 0000.0001) diffKhT =   /* Laplacian diffusion of heat laterally ( m^2/s ) */
(PID.TID 0000.0001)                 1.000000000000000E-04
(PID.TID 0000.0001)     ;
(PID.TID 0000.0001) diffK4T =   /* Biharmonic diffusion of heat laterally ( m^4/s ) */
(PID.TID 0000.0001)                 0.000000000000000E+00
(PID.TID 0000.0001)     ;
(PID.TID 0000.0001) diffKhS =   /* Laplacian diffusion of salt laterally ( m^2/s ) */
(PID.TID 0000.0001)                 1.000000000000000E+03
(PID.TID 0000.0001)     ;
(PID.TID 0000.0001) diffK4S =   /* Biharmonic diffusion of salt laterally ( m^4/s ) */
(PID.TID 0000.0001)                 0.000000000000000E+00
(PID.TID 0000.0001)     ;
(PID.TID 0000.0001) diffKrNrT = /* vertical profile of vertical diffusion of Temp ( m^2/s )*/
(PID.TID 0000.0001)   100 @  1.000000000000000E-05              /* K =  1:100 */
(PID.TID 0000.0001)     ;
(PID.TID 0000.0001) diffKrNrS = /* vertical profile of vertical diffusion of Salt ( m^2/s )*/
(PID.TID 0000.0001)   100 @  1.000000000000000E-05              /* K =  1:100 */
(PID.TID 0000.0001)     ;
(PID.TID 0000.0001) diffKrBL79surf = /* Surface diffusion for Bryan and Lewis 79 ( m^2/s ) */
(PID.TID 0000.0001)                 0.000000000000000E+00
(PID.TID 0000.0001)     ;
(PID.TID 0000.0001) diffKrBL79deep = /* Deep diffusion for Bryan and Lewis 1979 ( m^2/s ) */
(PID.TID 0000.0001)                 0.000000000000000E+00
(PID.TID 0000.0001)     ;
(PID.TID 0000.0001) diffKrBL79scl = /* Depth scale for Bryan and Lewis 1979 ( m ) */
(PID.TID 0000.0001)                 2.000000000000000E+02
(PID.TID 0000.0001)     ;
(PID.TID 0000.0001) diffKrBL79Ho = /* Turning depth for Bryan and Lewis 1979 ( m ) */
(PID.TID 0000.0001)                -2.000000000000000E+03
(PID.TID 0000.0001)     ;
(PID.TID 0000.0001) ivdc_kappa = /* Implicit Vertical Diffusivity for Convection ( m^2/s) */
(PID.TID 0000.0001)                 0.000000000000000E+00
(PID.TID 0000.0001)     ;
(PID.TID 0000.0001) hMixCriteria=  /* Criteria for mixed-layer diagnostic */
(PID.TID 0000.0001)                -8.000000000000000E-01
(PID.TID 0000.0001)     ;
(PID.TID 0000.0001) dRhoSmall =  /* Parameter for mixed-layer diagnostic */
(PID.TID 0000.0001)                 1.000000000000000E-06
(PID.TID 0000.0001)     ;
(PID.TID 0000.0001) hMixSmooth=  /* Smoothing parameter for mixed-layer diagnostic */
(PID.TID 0000.0001)                 0.000000000000000E+00
(PID.TID 0000.0001)     ;
(PID.TID 0000.0001) eosType =  /* Type of Equation of State */
(PID.TID 0000.0001)               'LINEAR'
(PID.TID 0000.0001)     ;
(PID.TID 0000.0001) tAlpha = /* Linear EOS thermal expansion coefficient ( 1/oC ) */
(PID.TID 0000.0001)                 2.000000000000000E-04
(PID.TID 0000.0001)     ;
(PID.TID 0000.0001) sBeta  = /* Linear EOS haline contraction coefficient ( 1/psu ) */
(PID.TID 0000.0001)                 0.000000000000000E+00
(PID.TID 0000.0001)     ;
(PID.TID 0000.0001) rhoNil    = /* Reference density for Linear EOS ( kg/m^3 ) */
(PID.TID 0000.0001)                 9.998000000000000E+02
(PID.TID 0000.0001)     ;
(PID.TID 0000.0001) HeatCapacity_Cp =  /* Specific heat capacity ( J/kg/K ) */
(PID.TID 0000.0001)                 3.994000000000000E+03
(PID.TID 0000.0001)     ;
(PID.TID 0000.0001) celsius2K = /* 0 degree Celsius converted to Kelvin ( K ) */
(PID.TID 0000.0001)                 2.731500000000000E+02
(PID.TID 0000.0001)     ;
(PID.TID 0000.0001) rhoConst  = /* Reference density (Boussinesq)  ( kg/m^3 ) */
(PID.TID 0000.0001)                 9.998000000000000E+02
(PID.TID 0000.0001)     ;
(PID.TID 0000.0001) rhoFacC = /* normalized Reference density @ cell-Center (-) */
(PID.TID 0000.0001)   100 @  1.000000000000000E+00              /* K =  1:100 */
(PID.TID 0000.0001)     ;
(PID.TID 0000.0001) rhoFacF = /* normalized Reference density @ W-Interface (-) */
(PID.TID 0000.0001)   101 @  1.000000000000000E+00              /* K =  1:101 */
(PID.TID 0000.0001)     ;
(PID.TID 0000.0001) rhoConstFresh = /* Fresh-water reference density ( kg/m^3 ) */
(PID.TID 0000.0001)                 9.998000000000000E+02
(PID.TID 0000.0001)     ;
(PID.TID 0000.0001) gravity =   /* Gravitational acceleration ( m/s^2 ) */
(PID.TID 0000.0001)                 9.810000000000000E+00
(PID.TID 0000.0001)     ;
(PID.TID 0000.0001) gBaro =   /* Barotropic gravity ( m/s^2 ) */
(PID.TID 0000.0001)                 9.810000000000000E+00
(PID.TID 0000.0001)     ;
(PID.TID 0000.0001) rotationPeriod =   /* Rotation Period ( s ) */
(PID.TID 0000.0001)                 8.616400000000000E+04
(PID.TID 0000.0001)     ;
(PID.TID 0000.0001) omega =   /* Angular velocity ( rad/s ) */
(PID.TID 0000.0001)                 7.292123516990375E-05
(PID.TID 0000.0001)     ;
(PID.TID 0000.0001) f0 =   /* Reference coriolis parameter ( 1/s ) */
(PID.TID 0000.0001)                 0.000000000000000E+00
(PID.TID 0000.0001)     ;
(PID.TID 0000.0001) beta =   /* Beta ( 1/(m.s) ) */
(PID.TID 0000.0001)                 0.000000000000000E+00
(PID.TID 0000.0001)     ;
(PID.TID 0000.0001) fPrime =   /* Second coriolis parameter ( 1/s ) */
(PID.TID 0000.0001)                 0.000000000000000E+00
(PID.TID 0000.0001)     ;
(PID.TID 0000.0001) rigidLid =   /* Rigid lid on/off flag */
(PID.TID 0000.0001)                   F
(PID.TID 0000.0001)     ;
(PID.TID 0000.0001) implicitFreeSurface =   /* Implicit free surface on/off flag */
(PID.TID 0000.0001)                   T
(PID.TID 0000.0001)     ;
(PID.TID 0000.0001) freeSurfFac =   /* Implicit free surface factor */
(PID.TID 0000.0001)                 1.000000000000000E+00
(PID.TID 0000.0001)     ;
(PID.TID 0000.0001) implicSurfPress =  /* Surface Pressure implicit factor (0-1)*/
(PID.TID 0000.0001)                 1.000000000000000E+00
(PID.TID 0000.0001)     ;
(PID.TID 0000.0001) implicDiv2Dflow =  /* Barot. Flow Div. implicit factor (0-1)*/
(PID.TID 0000.0001)                 1.000000000000000E+00
(PID.TID 0000.0001)     ;
(PID.TID 0000.0001) uniformLin_PhiSurf = /* use uniform Bo_surf on/off flag*/
(PID.TID 0000.0001)                   T
(PID.TID 0000.0001)     ;
(PID.TID 0000.0001) uniformFreeSurfLev = /* free-surface level-index is uniform */
(PID.TID 0000.0001)                   T
(PID.TID 0000.0001)     ;
(PID.TID 0000.0001) hFacMin =   /* minimum partial cell factor (hFac) */
(PID.TID 0000.0001)                 1.000000000000000E-01
(PID.TID 0000.0001)     ;
(PID.TID 0000.0001) hFacMinDr = /* minimum partial cell thickness ( m) */
(PID.TID 0000.0001)                 0.000000000000000E+00
(PID.TID 0000.0001)     ;
(PID.TID 0000.0001) exactConserv =  /* Exact Volume Conservation on/off flag*/
(PID.TID 0000.0001)                   F
(PID.TID 0000.0001)     ;
(PID.TID 0000.0001) linFSConserveTr = /* Tracer correction for Lin Free Surface on/off flag*/
(PID.TID 0000.0001)                   F
(PID.TID 0000.0001)     ;
(PID.TID 0000.0001) nonlinFreeSurf = /* Non-linear Free Surf. options (-1,0,1,2,3)*/
(PID.TID 0000.0001)                       0
(PID.TID 0000.0001)      -1,0= Off ; 1,2,3= On, 2=+rescale gU,gV, 3=+update cg2d solv.
(PID.TID 0000.0001)     ;
(PID.TID 0000.0001) hFacInf =   /* lower threshold for hFac (nonlinFreeSurf only)*/
(PID.TID 0000.0001)                 2.000000000000000E-01
(PID.TID 0000.0001)     ;
(PID.TID 0000.0001) hFacSup =   /* upper threshold for hFac (nonlinFreeSurf only)*/
(PID.TID 0000.0001)                 2.000000000000000E+00
(PID.TID 0000.0001)     ;
(PID.TID 0000.0001) select_rStar = /* r* Vertical coord. options (=0 r coord.; >0 uses r*)*/
(PID.TID 0000.0001)                       0
(PID.TID 0000.0001)     ;
(PID.TID 0000.0001) useRealFreshWaterFlux = /* Real Fresh Water Flux on/off flag*/
(PID.TID 0000.0001)                   F
(PID.TID 0000.0001)     ;
(PID.TID 0000.0001) temp_EvPrRn = /* Temp. of Evap/Prec/R (UNSET=use local T)(oC)*/
(PID.TID 0000.0001)                 1.234567000000000E+05
(PID.TID 0000.0001)     ;
(PID.TID 0000.0001) salt_EvPrRn = /* Salin. of Evap/Prec/R (UNSET=use local S)(psu)*/
(PID.TID 0000.0001)                 0.000000000000000E+00
(PID.TID 0000.0001)     ;
(PID.TID 0000.0001) selectAddFluid = /* option for mass source/sink of fluid (=0: off) */
(PID.TID 0000.0001)                       0
(PID.TID 0000.0001)     ;
(PID.TID 0000.0001) temp_addMass = /* Temp. of addMass array (UNSET=use local T)(oC)*/
(PID.TID 0000.0001)                 1.234567000000000E+05
(PID.TID 0000.0001)     ;
(PID.TID 0000.0001) salt_addMass = /* Salin. of addMass array (UNSET=use local S)(psu)*/
(PID.TID 0000.0001)                 0.000000000000000E+00
(PID.TID 0000.0001)     ;
(PID.TID 0000.0001) convertFW2Salt = /* convert F.W. Flux to Salt Flux (-1=use local S)(psu)*/
(PID.TID 0000.0001)                 3.500000000000000E+01
(PID.TID 0000.0001)     ;
(PID.TID 0000.0001) use3Dsolver = /* use 3-D pressure solver on/off flag */
(PID.TID 0000.0001)                   F
(PID.TID 0000.0001)     ;
(PID.TID 0000.0001) nonHydrostatic =  /* Non-Hydrostatic on/off flag */
(PID.TID 0000.0001)                   F
(PID.TID 0000.0001)     ;
(PID.TID 0000.0001) nh_Am2 = /* Non-Hydrostatic terms scaling factor */
(PID.TID 0000.0001)                 1.000000000000000E+00
(PID.TID 0000.0001)     ;
(PID.TID 0000.0001) implicitNHPress = /* Non-Hyd Pressure implicit factor (0-1)*/
(PID.TID 0000.0001)                 1.000000000000000E+00
(PID.TID 0000.0001)     ;
(PID.TID 0000.0001) selectNHfreeSurf = /* Non-Hyd (free-)Surface option */
(PID.TID 0000.0001)                       0
(PID.TID 0000.0001)     ;
(PID.TID 0000.0001) quasiHydrostatic = /* Quasi-Hydrostatic on/off flag */
(PID.TID 0000.0001)                   F
(PID.TID 0000.0001)     ;
(PID.TID 0000.0001) calc_wVelocity = /* vertical velocity calculation on/off flag */
(PID.TID 0000.0001)                   T
(PID.TID 0000.0001)     ;
(PID.TID 0000.0001) momStepping =  /* Momentum equation on/off flag */
(PID.TID 0000.0001)                   T
(PID.TID 0000.0001)     ;
(PID.TID 0000.0001) vectorInvariantMomentum= /* Vector-Invariant Momentum on/off */
(PID.TID 0000.0001)                   F
(PID.TID 0000.0001)     ;
(PID.TID 0000.0001) momAdvection =  /* Momentum advection on/off flag */
(PID.TID 0000.0001)                   T
(PID.TID 0000.0001)     ;
(PID.TID 0000.0001) momViscosity =  /* Momentum viscosity on/off flag */
(PID.TID 0000.0001)                   T
(PID.TID 0000.0001)     ;
(PID.TID 0000.0001) momImplVertAdv= /* Momentum implicit vert. advection on/off*/
(PID.TID 0000.0001)                   F
(PID.TID 0000.0001)     ;
(PID.TID 0000.0001) implicitViscosity = /* Implicit viscosity on/off flag */
(PID.TID 0000.0001)                   T
(PID.TID 0000.0001)     ;
(PID.TID 0000.0001) metricTerms =  /* metric-Terms on/off flag */
(PID.TID 0000.0001)                   F
(PID.TID 0000.0001)     ;
(PID.TID 0000.0001) useNHMTerms = /* Non-Hydrostatic Metric-Terms on/off */
(PID.TID 0000.0001)                   F
(PID.TID 0000.0001)     ;
(PID.TID 0000.0001) selectCoriMap = /* Coriolis Map options (0,1,2,3)*/
(PID.TID 0000.0001)                       1
(PID.TID 0000.0001)     0= f-Plane ; 1= Beta-Plane ; 2= Spherical ; 3= read from file
(PID.TID 0000.0001)     ;
(PID.TID 0000.0001) use3dCoriolis = /* 3-D Coriolis on/off flag */
(PID.TID 0000.0001)                   F
(PID.TID 0000.0001)     ;
(PID.TID 0000.0001) useCoriolis =  /* Coriolis on/off flag */
(PID.TID 0000.0001)                   T
(PID.TID 0000.0001)     ;
(PID.TID 0000.0001) useCDscheme =  /* CD scheme on/off flag */
(PID.TID 0000.0001)                   F
(PID.TID 0000.0001)     ;
(PID.TID 0000.0001) useEnergyConservingCoriolis= /* Flx-Form Coriolis scheme flag */
(PID.TID 0000.0001)                   F
(PID.TID 0000.0001)     ;
(PID.TID 0000.0001) useJamartWetPoints= /* Coriolis WetPoints method flag */
(PID.TID 0000.0001)                   F
(PID.TID 0000.0001)     ;
(PID.TID 0000.0001) useJamartMomAdv= /* V.I Non-linear terms Jamart flag */
(PID.TID 0000.0001)                   F
(PID.TID 0000.0001)     ;
(PID.TID 0000.0001) useAbsVorticity= /* V.I Works with f+zeta in Coriolis */
(PID.TID 0000.0001)                   F
(PID.TID 0000.0001)     ;
(PID.TID 0000.0001) selectVortScheme= /* V.I Scheme selector for Vorticity-Term */
(PID.TID 0000.0001)               123456789
(PID.TID 0000.0001)    = 0 : enstrophy (Shallow-Water Eq.) conserving scheme by Sadourny, JAS 75
(PID.TID 0000.0001)    = 1 : same as 0 with modified hFac
(PID.TID 0000.0001)    = 2 : energy conserving scheme (used by Sadourny in JAS 75 paper)
(PID.TID 0000.0001)    = 3 : energy (general) and enstrophy (2D, nonDiv.) conserving scheme
(PID.TID 0000.0001)          from Sadourny (Burridge & Haseler, ECMWF Rep.4, 1977)
(PID.TID 0000.0001)     ;
(PID.TID 0000.0001) upwindVorticity= /* V.I Upwind bias vorticity flag */
(PID.TID 0000.0001)                   F
(PID.TID 0000.0001)     ;
(PID.TID 0000.0001) highOrderVorticity= /* V.I High order vort. advect. flag */
(PID.TID 0000.0001)                   F
(PID.TID 0000.0001)     ;
(PID.TID 0000.0001) upwindShear= /* V.I Upwind vertical Shear advection flag */
(PID.TID 0000.0001)                   F
(PID.TID 0000.0001)     ;
(PID.TID 0000.0001) selectKEscheme= /* V.I Kinetic Energy scheme selector */
(PID.TID 0000.0001)                       0
(PID.TID 0000.0001)     ;
(PID.TID 0000.0001) momForcing =  /* Momentum forcing on/off flag */
(PID.TID 0000.0001)                   T
(PID.TID 0000.0001)     ;
(PID.TID 0000.0001) momPressureForcing =  /* Momentum pressure term on/off flag */
(PID.TID 0000.0001)                   T
(PID.TID 0000.0001)     ;
(PID.TID 0000.0001) implicitIntGravWave= /* Implicit Internal Gravity Wave flag */
(PID.TID 0000.0001)                   F
(PID.TID 0000.0001)     ;
(PID.TID 0000.0001) staggerTimeStep =    /* Stagger time stepping on/off flag */
(PID.TID 0000.0001)                   T
(PID.TID 0000.0001)     ;
(PID.TID 0000.0001) doResetHFactors = /* reset thickness factors @ each time-step */
(PID.TID 0000.0001)                   F
(PID.TID 0000.0001)     ;
(PID.TID 0000.0001) multiDimAdvection =  /* enable/disable Multi-Dim Advection */
(PID.TID 0000.0001)                   T
(PID.TID 0000.0001)     ;
(PID.TID 0000.0001) useMultiDimAdvec =   /* Multi-Dim Advection is/is-not used */
(PID.TID 0000.0001)                   T
(PID.TID 0000.0001)     ;
(PID.TID 0000.0001) implicitDiffusion = /* Implicit Diffusion on/off flag */
(PID.TID 0000.0001)                   T
(PID.TID 0000.0001)     ;
(PID.TID 0000.0001) tempStepping =  /* Temperature equation on/off flag */
(PID.TID 0000.0001)                   T
(PID.TID 0000.0001)     ;
(PID.TID 0000.0001) tempAdvection = /* Temperature advection on/off flag */
(PID.TID 0000.0001)                   T
(PID.TID 0000.0001)     ;
(PID.TID 0000.0001) tempImplVertAdv = /* Temp. implicit vert. advection on/off */
(PID.TID 0000.0001)                   F
(PID.TID 0000.0001)     ;
(PID.TID 0000.0001) tempForcing  =  /* Temperature forcing on/off flag */
(PID.TID 0000.0001)                   T
(PID.TID 0000.0001)     ;
(PID.TID 0000.0001) doThetaClimRelax = /* apply SST relaxation on/off flag */
(PID.TID 0000.0001)                   F
(PID.TID 0000.0001)     ;
(PID.TID 0000.0001) tempIsActiveTr = /* Temp. is a dynamically Active Tracer */
(PID.TID 0000.0001)                   T
(PID.TID 0000.0001)     ;
(PID.TID 0000.0001) saltStepping =  /* Salinity equation on/off flag */
(PID.TID 0000.0001)                   F
(PID.TID 0000.0001)     ;
(PID.TID 0000.0001) saltAdvection = /* Salinity advection on/off flag */
(PID.TID 0000.0001)                   F
(PID.TID 0000.0001)     ;
(PID.TID 0000.0001) saltImplVertAdv = /* Sali. implicit vert. advection on/off */
(PID.TID 0000.0001)                   F
(PID.TID 0000.0001)     ;
(PID.TID 0000.0001) saltForcing  =  /* Salinity forcing on/off flag */
(PID.TID 0000.0001)                   F
(PID.TID 0000.0001)     ;
(PID.TID 0000.0001) doSaltClimRelax = /* apply SSS relaxation on/off flag */
(PID.TID 0000.0001)                   F
(PID.TID 0000.0001)     ;
(PID.TID 0000.0001) saltIsActiveTr = /* Salt  is a dynamically Active Tracer */
(PID.TID 0000.0001)                   F
(PID.TID 0000.0001)     ;
(PID.TID 0000.0001)  readBinaryPrec = /* Precision used for reading binary files */
(PID.TID 0000.0001)                      64
(PID.TID 0000.0001)     ;
(PID.TID 0000.0001) writeBinaryPrec = /* Precision used for writing binary files */
(PID.TID 0000.0001)                      64
(PID.TID 0000.0001)     ;
(PID.TID 0000.0001)  globalFiles = /* write "global" (=not per tile) files */
(PID.TID 0000.0001)                   F
(PID.TID 0000.0001)     ;
(PID.TID 0000.0001)  useSingleCpuIO = /* only master MPI process does I/O */
(PID.TID 0000.0001)                   T
(PID.TID 0000.0001)     ;
(PID.TID 0000.0001)  useSingleCpuInput = /* only master process reads input */
(PID.TID 0000.0001)                   T
(PID.TID 0000.0001)     ;
(PID.TID 0000.0001) /* debLev[*]  : level of debug & auxiliary message printing */
(PID.TID 0000.0001) debLevZero =  0 ; /* level of disabled aux. msg printing */
(PID.TID 0000.0001)    debLevA =  1 ; /* level of minimum  aux. msg printing */
(PID.TID 0000.0001)    debLevB =  2 ; /* level of low aux. print (report read-file opening)*/
(PID.TID 0000.0001)    debLevC =  3 ; /* level of moderate debug prt (most pkgs debug msg) */
(PID.TID 0000.0001)    debLevD =  4 ; /* level of enhanced debug prt (add DEBUG_STATS prt) */
(PID.TID 0000.0001)    debLevE =  5 ; /* level of extensive debug printing */
(PID.TID 0000.0001) debugLevel =  /* select debug printing level */
(PID.TID 0000.0001)                       2
(PID.TID 0000.0001)     ;
(PID.TID 0000.0001) //
(PID.TID 0000.0001) // Elliptic solver(s) paramters ( PARM02 in namelist )
(PID.TID 0000.0001) //
(PID.TID 0000.0001) cg2dMaxIters =   /* Upper limit on 2d con. grad iterations  */
(PID.TID 0000.0001)                    1000
(PID.TID 0000.0001)     ;
(PID.TID 0000.0001) cg2dChkResFreq =   /* 2d con. grad convergence test frequency */
(PID.TID 0000.0001)                       1
(PID.TID 0000.0001)     ;
(PID.TID 0000.0001) cg2dUseMinResSol= /* use cg2d last-iter(=0) / min-resid.(=1) solution */
(PID.TID 0000.0001)                       0
(PID.TID 0000.0001)     ;
(PID.TID 0000.0001) cg2dTargetResidual =   /* 2d con. grad target residual  */
(PID.TID 0000.0001)                 1.000000000000000E-13
(PID.TID 0000.0001)     ;
(PID.TID 0000.0001) cg2dTargetResWunit =   /* CG2d target residual [W units] */
(PID.TID 0000.0001)                -1.000000000000000E+00
(PID.TID 0000.0001)     ;
(PID.TID 0000.0001) cg2dPreCondFreq =   /* Freq. for updating cg2d preconditioner */
(PID.TID 0000.0001)                       1
(PID.TID 0000.0001)     ;
(PID.TID 0000.0001) useSRCGSolver =  /* use single reduction CG solver(s) */
(PID.TID 0000.0001)                   F
(PID.TID 0000.0001)     ;
(PID.TID 0000.0001) printResidualFreq = /* Freq. for printing CG residual */
(PID.TID 0000.0001)                       0
(PID.TID 0000.0001)     ;
(PID.TID 0000.0001) //
(PID.TID 0000.0001) // Time stepping paramters ( PARM03 in namelist )
(PID.TID 0000.0001) //
(PID.TID 0000.0001) deltaTMom =   /* Momentum equation timestep ( s ) */
(PID.TID 0000.0001)                 1.500000000000000E+01
(PID.TID 0000.0001)     ;
(PID.TID 0000.0001) deltaTFreeSurf = /* FreeSurface equation timestep ( s ) */
(PID.TID 0000.0001)                 1.500000000000000E+01
(PID.TID 0000.0001)     ;
(PID.TID 0000.0001) dTtracerLev =  /* Tracer equation timestep ( s ) */
(PID.TID 0000.0001)   100 @  1.500000000000000E+01              /* K =  1:100 */
(PID.TID 0000.0001)     ;
(PID.TID 0000.0001) deltaTClock  =   /* Model clock timestep ( s ) */
(PID.TID 0000.0001)                 1.500000000000000E+01
(PID.TID 0000.0001)     ;
(PID.TID 0000.0001) cAdjFreq =   /* Convective adjustment interval ( s ) */
(PID.TID 0000.0001)                 0.000000000000000E+00
(PID.TID 0000.0001)     ;
(PID.TID 0000.0001) momForcingOutAB = /* =1: take Momentum Forcing out of Adams-Bash. stepping */
(PID.TID 0000.0001)                       0
(PID.TID 0000.0001)     ;
(PID.TID 0000.0001) tracForcingOutAB = /* =1: take T,S,pTr Forcing out of Adams-Bash. stepping */
(PID.TID 0000.0001)                       0
(PID.TID 0000.0001)     ;
(PID.TID 0000.0001) momDissip_In_AB = /* put Dissipation Tendency in Adams-Bash. stepping */
(PID.TID 0000.0001)                   T
(PID.TID 0000.0001)     ;
(PID.TID 0000.0001) doAB_onGtGs = /* apply AB on Tendencies (rather than on T,S)*/
(PID.TID 0000.0001)                   T
(PID.TID 0000.0001)     ;
(PID.TID 0000.0001) abEps =   /* Adams-Bashforth-2 stabilizing weight */
(PID.TID 0000.0001)                 1.000000000000000E-01
(PID.TID 0000.0001)     ;
(PID.TID 0000.0001) pickupStrictlyMatch= /* stop if pickup do not strictly match */
(PID.TID 0000.0001)                   T
(PID.TID 0000.0001)     ;
(PID.TID 0000.0001) nIter0   =   /* Run starting timestep number */
(PID.TID 0000.0001)                       0
(PID.TID 0000.0001)     ;
(PID.TID 0000.0001) nTimeSteps = /* Number of timesteps */
(PID.TID 0000.0001)                    7200
(PID.TID 0000.0001)     ;
(PID.TID 0000.0001) nEndIter =   /* Run ending timestep number */
(PID.TID 0000.0001)                    7200
(PID.TID 0000.0001)     ;
(PID.TID 0000.0001) baseTime =   /* Model base time ( s ) */
(PID.TID 0000.0001)                 0.000000000000000E+00
(PID.TID 0000.0001)     ;
(PID.TID 0000.0001) startTime =  /* Run start time ( s ) */
(PID.TID 0000.0001)                 0.000000000000000E+00
(PID.TID 0000.0001)     ;
(PID.TID 0000.0001) endTime  =   /* Integration ending time ( s ) */
(PID.TID 0000.0001)                 1.080000000000000E+05
(PID.TID 0000.0001)     ;
(PID.TID 0000.0001) pChkPtFreq = /* Permanent restart/pickup file interval ( s ) */
(PID.TID 0000.0001)                 2.160000000000000E+04
(PID.TID 0000.0001)     ;
(PID.TID 0000.0001) chkPtFreq  = /* Rolling restart/pickup file interval ( s ) */
(PID.TID 0000.0001)                 0.000000000000000E+00
(PID.TID 0000.0001)     ;
(PID.TID 0000.0001) pickup_write_mdsio =   /* Model IO flag. */
(PID.TID 0000.0001)                   T
(PID.TID 0000.0001)     ;
(PID.TID 0000.0001) pickup_read_mdsio =   /* Model IO flag. */
(PID.TID 0000.0001)                   T
(PID.TID 0000.0001)     ;
(PID.TID 0000.0001) pickup_write_immed =   /* Model IO flag. */
(PID.TID 0000.0001)                   F
(PID.TID 0000.0001)     ;
(PID.TID 0000.0001) writePickupAtEnd =   /* Model IO flag. */
(PID.TID 0000.0001)                   T
(PID.TID 0000.0001)     ;
(PID.TID 0000.0001) dumpFreq =   /* Model state write out interval ( s ). */
(PID.TID 0000.0001)                 7.200000000000000E+03
(PID.TID 0000.0001)     ;
(PID.TID 0000.0001) dumpInitAndLast= /* write out Initial & Last iter. model state */
(PID.TID 0000.0001)                   T
(PID.TID 0000.0001)     ;
(PID.TID 0000.0001) snapshot_mdsio =   /* Model IO flag. */
(PID.TID 0000.0001)                   T
(PID.TID 0000.0001)     ;
(PID.TID 0000.0001) monitorFreq =   /* Monitor output interval ( s ). */
(PID.TID 0000.0001)                 7.200000000000000E+03
(PID.TID 0000.0001)     ;
(PID.TID 0000.0001) monitorSelect = /* select group of variables to monitor */
(PID.TID 0000.0001)                       3
(PID.TID 0000.0001)     ;
(PID.TID 0000.0001) monitor_stdio =   /* Model IO flag. */
(PID.TID 0000.0001)                   T
(PID.TID 0000.0001)     ;
(PID.TID 0000.0001) externForcingPeriod =   /* forcing period (s) */
(PID.TID 0000.0001)                 0.000000000000000E+00
(PID.TID 0000.0001)     ;
(PID.TID 0000.0001) externForcingCycle =   /* period of the cyle (s). */
(PID.TID 0000.0001)                 0.000000000000000E+00
(PID.TID 0000.0001)     ;
(PID.TID 0000.0001) tauThetaClimRelax =   /* relaxation time scale (s) */
(PID.TID 0000.0001)                 0.000000000000000E+00
(PID.TID 0000.0001)     ;
(PID.TID 0000.0001) tauSaltClimRelax =   /* relaxation time scale (s) */
(PID.TID 0000.0001)                 0.000000000000000E+00
(PID.TID 0000.0001)     ;
(PID.TID 0000.0001) latBandClimRelax =   /* max. Lat. where relaxation */
(PID.TID 0000.0001)                 1.500000000000000E+04
(PID.TID 0000.0001)     ;
(PID.TID 0000.0001) //
(PID.TID 0000.0001) // Gridding paramters ( PARM04 in namelist )
(PID.TID 0000.0001) //
(PID.TID 0000.0001) usingCartesianGrid = /* Cartesian coordinates flag ( True/False ) */
(PID.TID 0000.0001)                   T
(PID.TID 0000.0001)     ;
(PID.TID 0000.0001) usingCylindricalGrid = /* Cylindrical coordinates flag ( True/False ) */
(PID.TID 0000.0001)                   F
(PID.TID 0000.0001)     ;
(PID.TID 0000.0001) usingSphericalPolarGrid = /* Spherical coordinates flag ( True/False ) */
(PID.TID 0000.0001)                   F
(PID.TID 0000.0001)     ;
(PID.TID 0000.0001) usingCurvilinearGrid = /* Curvilinear coordinates flag ( True/False ) */
(PID.TID 0000.0001)                   F
(PID.TID 0000.0001)     ;
(PID.TID 0000.0001) selectSigmaCoord = /* Hybrid-Sigma Vert. Coordinate option */
(PID.TID 0000.0001)                       0
(PID.TID 0000.0001)     ;
(PID.TID 0000.0001) Ro_SeaLevel = /* r(1) ( units of r ==  m ) */
(PID.TID 0000.0001)                 0.000000000000000E+00
(PID.TID 0000.0001)     ;
(PID.TID 0000.0001) rSigmaBnd = /* r/sigma transition ( units of r ==  m ) */
(PID.TID 0000.0001)                 1.234567000000000E+05
(PID.TID 0000.0001)     ;
(PID.TID 0000.0001) rkSign =   /* index orientation relative to vertical coordinate */
(PID.TID 0000.0001)                -1.000000000000000E+00
(PID.TID 0000.0001)     ;
(PID.TID 0000.0001) gravitySign = /* gravity orientation relative to vertical coordinate */
(PID.TID 0000.0001)                -1.000000000000000E+00
(PID.TID 0000.0001)     ;
(PID.TID 0000.0001) mass2rUnit = /* convert mass per unit area [kg/m2] to r-units [m] */
(PID.TID 0000.0001)                 1.000200040008002E-03
(PID.TID 0000.0001)     ;
(PID.TID 0000.0001) rUnit2mass = /* convert r-units [m] to mass per unit area [kg/m2] */
(PID.TID 0000.0001)                 9.998000000000000E+02
(PID.TID 0000.0001)     ;
(PID.TID 0000.0001) drC =   /* C spacing ( units of r ) */
(PID.TID 0000.0001)                 2.188755257190683E+00,      /* K =  1 */
(PID.TID 0000.0001)                 4.330899997470791E+00,      /* K =  2 */
(PID.TID 0000.0001)                 4.238671555342814E+00,      /* K =  3 */
(PID.TID 0000.0001)                 4.148407158919499E+00,      /* K =  4 */
(PID.TID 0000.0001)                 4.060064982973822E+00,      /* K =  5 */
(PID.TID 0000.0001)                 3.973604092965578E+00,      /* K =  6 */
(PID.TID 0000.0001)                 3.888984426073804E+00,      /* K =  7 */
(PID.TID 0000.0001)                 3.806166772633129E+00,      /* K =  8 */
(PID.TID 0000.0001)                 3.725112757965456E+00,      /* K =  9 */
(PID.TID 0000.0001)                 3.645784824598524E+00,      /* K = 10 */
(PID.TID 0000.0001)                 3.568146214863156E+00,      /* K = 11 */
(PID.TID 0000.0001)                 3.492160953861090E+00,      /* K = 12 */
(PID.TID 0000.0001)                 3.417793832795526E+00,      /* K = 13 */
(PID.TID 0000.0001)                 3.345010392656658E+00,      /* K = 14 */
(PID.TID 0000.0001)                 3.273776908254621E+00,      /* K = 15 */
(PID.TID 0000.0001)                 3.204060372592473E+00,      /* K = 16 */
(PID.TID 0000.0001)                 3.135828481571955E+00,      /* K = 17 */
(PID.TID 0000.0001)                 3.069049619024951E+00,      /* K = 18 */
(PID.TID 0000.0001)                 3.003692842063711E+00,      /* K = 19 */
(PID.TID 0000.0001)                 2.939727866743045E+00,      /* K = 20 */
(PID.TID 0000.0001)                 2.877125054027847E+00,      /* K = 21 */
(PID.TID 0000.0001)                 2.815855396059452E+00,      /* K = 22 */
(PID.TID 0000.0001)                 2.755890502714447E+00,      /* K = 23 */
(PID.TID 0000.0001)                 2.697202588449727E+00,      /* K = 24 */
(PID.TID 0000.0001)                 2.639764459427690E+00,      /* K = 25 */
(PID.TID 0000.0001)                 2.583549500915603E+00,      /* K = 26 */
(PID.TID 0000.0001)                 2.528531664953307E+00,      /* K = 27 */
(PID.TID 0000.0001)                 2.474685458283540E+00,      /* K = 28 */
(PID.TID 0000.0001)                 2.421985930539298E+00,      /* K = 29 */
(PID.TID 0000.0001)                 2.370408662682740E+00,      /* K = 30 */
(PID.TID 0000.0001)                 2.319929755690298E+00,      /* K = 31 */
(PID.TID 0000.0001)                 2.270525819478747E+00,      /* K = 32 */
(PID.TID 0000.0001)                 2.222173962067086E+00,      /* K = 33 */
(PID.TID 0000.0001)                 2.174851778969233E+00,      /* K = 34 */
(PID.TID 0000.0001)                 2.128537342812607E+00,      /* K = 35 */
(PID.TID 0000.0001)                 2.083209193177780E+00,      /* K = 36 */
(PID.TID 0000.0001)                 2.038846326654500E+00,      /* K = 37 */
(PID.TID 0000.0001)                 1.995428187109485E+00,      /* K = 38 */
(PID.TID 0000.0001)                 1.952934656161452E+00,      /* K = 39 */
(PID.TID 0000.0001)                 1.911346043858999E+00,      /* K = 40 */
(PID.TID 0000.0001)                 1.870643079556999E+00,      /* K = 41 */
(PID.TID 0000.0001)                 1.830806902987284E+00,      /* K = 42 */
(PID.TID 0000.0001)                 1.791819055519489E+00,      /* K = 43 */
(PID.TID 0000.0001)                 1.753661471607994E+00,      /* K = 44 */
(PID.TID 0000.0001)                 1.716316470421009E+00,      /* K = 45 */
(PID.TID 0000.0001)                 1.679766747647922E+00,      /* K = 46 */
(PID.TID 0000.0001)                 1.643995367481116E+00,      /* K = 47 */
(PID.TID 0000.0001)                 1.608985754768530E+00,      /* K = 48 */
(PID.TID 0000.0001)                 1.574721687333338E+00,      /* K = 49 */
(PID.TID 0000.0001)                 1.541187288457190E+00,      /* K = 50 */
(PID.TID 0000.0001)                 1.508367019523514E+00,      /* K = 51 */
(PID.TID 0000.0001)                 1.476245672817492E+00,      /* K = 52 */
(PID.TID 0000.0001)                 1.444808364479355E+00,      /* K = 53 */
(PID.TID 0000.0001)                 1.414040527607753E+00,      /* K = 54 */
(PID.TID 0000.0001)                 1.383927905509979E+00,      /* K = 55 */
(PID.TID 0000.0001)                 1.354456545095941E+00,      /* K = 56 */
(PID.TID 0000.0001)                 1.325612790412805E+00,      /* K = 57 */
(PID.TID 0000.0001)                 1.297383276317331E+00,      /* K = 58 */
(PID.TID 0000.0001)                 1.269754922282946E+00,      /* K = 59 */
(PID.TID 0000.0001)                 1.242714926338713E+00,      /* K = 60 */
(PID.TID 0000.0001)                 1.216250759137361E+00,      /* K = 61 */
(PID.TID 0000.0001)                 1.190350158149641E+00,      /* K = 62 */
(PID.TID 0000.0001)                 1.165001121982321E+00,      /* K = 63 */
(PID.TID 0000.0001)                 1.140191904817177E+00,      /* K = 64 */
(PID.TID 0000.0001)                 1.115911010968409E+00,      /* K = 65 */
(PID.TID 0000.0001)                 1.092147189555960E+00,      /* K = 66 */
(PID.TID 0000.0001)                 1.068889429292269E+00,      /* K = 67 */
(PID.TID 0000.0001)                 1.046126953380043E+00,      /* K = 68 */
(PID.TID 0000.0001)                 1.017434101955024E+00,      /* K = 69 */
(PID.TID 0000.0001)     3 @  1.000000000000000E+00,             /* K = 70: 72 */
(PID.TID 0000.0001)                 9.998584140034217E-01,      /* K = 73 */
(PID.TID 0000.0001)                 1.010593151450680E+00,      /* K = 74 */
(PID.TID 0000.0001)                 1.032582454175967E+00,      /* K = 75 */
(PID.TID 0000.0001)                 1.055050217925506E+00,      /* K = 76 */
(PID.TID 0000.0001)                 1.078006853441037E+00,      /* K = 77 */
(PID.TID 0000.0001)                 1.101462997989634E+00,      /* K = 78 */
(PID.TID 0000.0001)                 1.125429520292630E+00,      /* K = 79 */
(PID.TID 0000.0001)                 1.149917525561778E+00,      /* K = 80 */
(PID.TID 0000.0001)                 1.174938360645011E+00,      /* K = 81 */
(PID.TID 0000.0001)                 1.200503619284147E+00,      /* K = 82 */
(PID.TID 0000.0001)                 1.226625147487014E+00,      /* K = 83 */
(PID.TID 0000.0001)                 1.253315049016451E+00,      /* K = 84 */
(PID.TID 0000.0001)                 1.280585690998757E+00,      /* K = 85 */
(PID.TID 0000.0001)                 1.308449709654159E+00,      /* K = 86 */
(PID.TID 0000.0001)                 1.336920016151980E+00,      /* K = 87 */
(PID.TID 0000.0001)                 1.366009802593203E+00,      /* K = 88 */
(PID.TID 0000.0001)                 1.395732548123206E+00,      /* K = 89 */
(PID.TID 0000.0001)                 1.426102025177510E+00,      /* K = 90 */
(PID.TID 0000.0001)                 1.457132305863421E+00,      /* K = 91 */
(PID.TID 0000.0001)                 1.488837768480531E+00,      /* K = 92 */
(PID.TID 0000.0001)                 1.521233104183099E+00,      /* K = 93 */
(PID.TID 0000.0001)                 1.554333323787391E+00,      /* K = 94 */
(PID.TID 0000.0001)                 1.588153764727151E+00,      /* K = 95 */
(PID.TID 0000.0001)                 1.622710098160403E+00,      /* K = 96 */
(PID.TID 0000.0001)                 1.658018336230896E+00,      /* K = 97 */
(PID.TID 0000.0001)                 1.694094839487546E+00,      /* K = 98 */
(PID.TID 0000.0001)                 1.730956324465319E+00,      /* K = 99 */
(PID.TID 0000.0001)                 1.768619871431060E+00,      /* K =100 */
(PID.TID 0000.0001)                 8.938271592110918E-01       /* K =101 */
(PID.TID 0000.0001)     ;
(PID.TID 0000.0001) drF =   /* W spacing ( units of r ) */
(PID.TID 0000.0001)                 4.377510514381365E+00,      /* K =  1 */
(PID.TID 0000.0001)                 4.284289480560218E+00,      /* K =  2 */
(PID.TID 0000.0001)                 4.193053630125411E+00,      /* K =  3 */
(PID.TID 0000.0001)                 4.103760687713587E+00,      /* K =  4 */
(PID.TID 0000.0001)                 4.016369278234058E+00,      /* K =  5 */
(PID.TID 0000.0001)                 3.930838907697099E+00,      /* K =  6 */
(PID.TID 0000.0001)                 3.847129944450508E+00,      /* K =  7 */
(PID.TID 0000.0001)                 3.765203600815751E+00,      /* K =  8 */
(PID.TID 0000.0001)                 3.685021915115161E+00,      /* K =  9 */
(PID.TID 0000.0001)                 3.606547734081888E+00,      /* K = 10 */
(PID.TID 0000.0001)                 3.529744695644425E+00,      /* K = 11 */
(PID.TID 0000.0001)                 3.454577212077754E+00,      /* K = 12 */
(PID.TID 0000.0001)                 3.381010453513297E+00,      /* K = 13 */
(PID.TID 0000.0001)                 3.309010331800018E+00,      /* K = 14 */
(PID.TID 0000.0001)                 3.238543484709224E+00,      /* K = 15 */
(PID.TID 0000.0001)                 3.169577260475722E+00,      /* K = 16 */
(PID.TID 0000.0001)                 3.102079702668187E+00,      /* K = 17 */
(PID.TID 0000.0001)                 3.036019535381715E+00,      /* K = 18 */
(PID.TID 0000.0001)                 2.971366148745707E+00,      /* K = 19 */
(PID.TID 0000.0001)                 2.908089584740382E+00,      /* K = 20 */
(PID.TID 0000.0001)                 2.846160523315313E+00,      /* K = 21 */
(PID.TID 0000.0001)                 2.785550268803592E+00,      /* K = 22 */
(PID.TID 0000.0001)                 2.726230736625302E+00,      /* K = 23 */
(PID.TID 0000.0001)                 2.668174440274151E+00,      /* K = 24 */
(PID.TID 0000.0001)                 2.611354478581228E+00,      /* K = 25 */
(PID.TID 0000.0001)                 2.555744523249978E+00,      /* K = 26 */
(PID.TID 0000.0001)                 2.501318806656635E+00,      /* K = 27 */
(PID.TID 0000.0001)                 2.448052109910445E+00,      /* K = 28 */
(PID.TID 0000.0001)                 2.395919751168151E+00,      /* K = 29 */
(PID.TID 0000.0001)                 2.344897574197328E+00,      /* K = 30 */
(PID.TID 0000.0001)                 2.294961937183269E+00,      /* K = 31 */
(PID.TID 0000.0001)                 2.246089701774226E+00,      /* K = 32 */
(PID.TID 0000.0001)                 2.198258222359946E+00,      /* K = 33 */
(PID.TID 0000.0001)                 2.151445335578521E+00,      /* K = 34 */
(PID.TID 0000.0001)                 2.105629350046694E+00,      /* K = 35 */
(PID.TID 0000.0001)                 2.060789036308865E+00,      /* K = 36 */
(PID.TID 0000.0001)                 2.016903617000136E+00,      /* K = 37 */
(PID.TID 0000.0001)                 1.973952757218834E+00,      /* K = 38 */
(PID.TID 0000.0001)                 1.931916555104069E+00,      /* K = 39 */
(PID.TID 0000.0001)                 1.890775532613929E+00,      /* K = 40 */
(PID.TID 0000.0001)                 1.850510626500068E+00,      /* K = 41 */
(PID.TID 0000.0001)                 1.811103179474499E+00,      /* K = 42 */
(PID.TID 0000.0001)                 1.772534931564479E+00,      /* K = 43 */
(PID.TID 0000.0001)                 1.734788011651509E+00,      /* K = 44 */
(PID.TID 0000.0001)                 1.697844929190508E+00,      /* K = 45 */
(PID.TID 0000.0001)                 1.661688566105336E+00,      /* K = 46 */
(PID.TID 0000.0001)                 1.626302168856896E+00,      /* K = 47 */
(PID.TID 0000.0001)                 1.591669340680163E+00,      /* K = 48 */
(PID.TID 0000.0001)                 1.557774033986514E+00,      /* K = 49 */
(PID.TID 0000.0001)                 1.524600542927867E+00,      /* K = 50 */
(PID.TID 0000.0001)                 1.492133496119162E+00,      /* K = 51 */
(PID.TID 0000.0001)                 1.460357849515821E+00,      /* K = 52 */
(PID.TID 0000.0001)                 1.429258879442888E+00,      /* K = 53 */
(PID.TID 0000.0001)                 1.398822175772617E+00,      /* K = 54 */
(PID.TID 0000.0001)                 1.369033635247342E+00,      /* K = 55 */
(PID.TID 0000.0001)                 1.339879454944541E+00,      /* K = 56 */
(PID.TID 0000.0001)                 1.311346125881070E+00,      /* K = 57 */
(PID.TID 0000.0001)                 1.283420426753591E+00,      /* K = 58 */
(PID.TID 0000.0001)                 1.256089417812301E+00,      /* K = 59 */
(PID.TID 0000.0001)                 1.229340434865126E+00,      /* K = 60 */
(PID.TID 0000.0001)                 1.203161083409596E+00,      /* K = 61 */
(PID.TID 0000.0001)                 1.177539232889686E+00,      /* K = 62 */
(PID.TID 0000.0001)                 1.152463011074957E+00,      /* K = 63 */
(PID.TID 0000.0001)                 1.127920798559398E+00,      /* K = 64 */
(PID.TID 0000.0001)                 1.103901223377420E+00,      /* K = 65 */
(PID.TID 0000.0001)                 1.080393155734499E+00,      /* K = 66 */
(PID.TID 0000.0001)                 1.057385702850038E+00,      /* K = 67 */
(PID.TID 0000.0001)                 1.034868203910047E+00,      /* K = 68 */
(PID.TID 0000.0001)     4 @  1.000000000000000E+00,             /* K = 69: 72 */
(PID.TID 0000.0001)                 9.997168280068435E-01,      /* K = 73 */
(PID.TID 0000.0001)                 1.021469474894516E+00,      /* K = 74 */
(PID.TID 0000.0001)                 1.043695433457419E+00,      /* K = 75 */
(PID.TID 0000.0001)                 1.066405002393594E+00,      /* K = 76 */
(PID.TID 0000.0001)                 1.089608704488480E+00,      /* K = 77 */
(PID.TID 0000.0001)                 1.113317291490789E+00,      /* K = 78 */
(PID.TID 0000.0001)                 1.137541749094471E+00,      /* K = 79 */
(PID.TID 0000.0001)                 1.162293302029086E+00,      /* K = 80 */
(PID.TID 0000.0001)                 1.187583419260936E+00,      /* K = 81 */
(PID.TID 0000.0001)                 1.213423819307359E+00,      /* K = 82 */
(PID.TID 0000.0001)                 1.239826475666668E+00,      /* K = 83 */
(PID.TID 0000.0001)                 1.266803622366234E+00,      /* K = 84 */
(PID.TID 0000.0001)                 1.294367759631280E+00,      /* K = 85 */
(PID.TID 0000.0001)                 1.322531659677038E+00,      /* K = 86 */
(PID.TID 0000.0001)                 1.351308372626922E+00,      /* K = 87 */
(PID.TID 0000.0001)                 1.380711232559483E+00,      /* K = 88 */
(PID.TID 0000.0001)                 1.410753863686929E+00,      /* K = 89 */
(PID.TID 0000.0001)                 1.441450186668091E+00,      /* K = 90 */
(PID.TID 0000.0001)                 1.472814425058751E+00,      /* K = 91 */
(PID.TID 0000.0001)                 1.504861111902312E+00,      /* K = 92 */
(PID.TID 0000.0001)                 1.537605096463885E+00,      /* K = 93 */
(PID.TID 0000.0001)                 1.571061551110896E+00,      /* K = 94 */
(PID.TID 0000.0001)                 1.605245978343405E+00,      /* K = 95 */
(PID.TID 0000.0001)                 1.640174217977400E+00,      /* K = 96 */
(PID.TID 0000.0001)                 1.675862454484391E+00,      /* K = 97 */
(PID.TID 0000.0001)                 1.712327224490701E+00,      /* K = 98 */
(PID.TID 0000.0001)                 1.749585424439936E+00,      /* K = 99 */
(PID.TID 0000.0001)                 1.787654318422184E+00       /* K =100 */
(PID.TID 0000.0001)     ;
(PID.TID 0000.0001) delX = /* U spacing ( m - cartesian, degrees - spherical ) */
(PID.TID 0000.0001)                 1.263294638016668E+03,      /* I =  1 */
(PID.TID 0000.0001)                 1.237496063806571E+03,      /* I =  2 */
(PID.TID 0000.0001)                 1.212224339320398E+03,      /* I =  3 */
(PID.TID 0000.0001)      . . .
(PID.TID 0000.0001)                 4.790113490274632E+02,      /* I = 48 */
(PID.TID 0000.0001)                 4.692291418815790E+02,      /* I = 49 */
(PID.TID 0000.0001)                 4.596467036489769E+02,      /* I = 50 */
(PID.TID 0000.0001)                 4.502599547167311E+02,      /* I = 51 */
(PID.TID 0000.0001)                 4.410648987843862E+02,      /* I = 52 */
(PID.TID 0000.0001)                 4.320576211625778E+02,      /* I = 53 */
(PID.TID 0000.0001)      . . .
(PID.TID 0000.0001)                 2.000000000000000E+02,      /* I = 98 */
(PID.TID 0000.0001)                 2.000000000000000E+02,      /* I = 99 */
(PID.TID 0000.0001)                 2.000000000000000E+02,      /* I =100 */
(PID.TID 0000.0001)                 2.000000000000000E+02,      /* I =101 */
(PID.TID 0000.0001)                 2.000000000000000E+02,      /* I =102 */
(PID.TID 0000.0001)                 2.000000000000000E+02,      /* I =103 */
(PID.TID 0000.0001)      . . .
(PID.TID 0000.0001)                 3.612641354876311E+02,      /* I =148 */
(PID.TID 0000.0001)                 3.687955530665730E+02,      /* I =149 */
(PID.TID 0000.0001)                 3.764839811128614E+02,      /* I =150 */
(PID.TID 0000.0001)                 3.843326928863569E+02,      /* I =151 */
(PID.TID 0000.0001)                 3.923450298858749E+02,      /* I =152 */
(PID.TID 0000.0001)                 4.005244032717896E+02,      /* I =153 */
(PID.TID 0000.0001)      . . .
(PID.TID 0000.0001)                 1.013599012055986E+03,      /* I =198 */
(PID.TID 0000.0001)                 1.034729915092050E+03,      /* I =199 */
(PID.TID 0000.0001)                 1.056301342495056E+03       /* I =200 */
(PID.TID 0000.0001)     ;
(PID.TID 0000.0001) delY = /* V spacing ( m - cartesian, degrees - spherical ) */
(PID.TID 0000.0001)                 5.000000000000000E+03       /* J =  1 */
(PID.TID 0000.0001)     ;
(PID.TID 0000.0001) xgOrigin = /* X-axis origin of West  edge (cartesian: m, lat-lon: deg) */
(PID.TID 0000.0001)                 0.000000000000000E+00
(PID.TID 0000.0001)     ;
(PID.TID 0000.0001) ygOrigin = /* Y-axis origin of South edge (cartesian: m, lat-lon: deg) */
(PID.TID 0000.0001)                 0.000000000000000E+00
(PID.TID 0000.0001)     ;
(PID.TID 0000.0001) rSphere =  /* Radius ( ignored - cartesian, m - spherical ) */
(PID.TID 0000.0001)                 6.370000000000000E+06
(PID.TID 0000.0001)     ;
(PID.TID 0000.0001) deepAtmosphere = /* Deep/Shallow Atmosphere flag (True/False) */
(PID.TID 0000.0001)                   F
(PID.TID 0000.0001)     ;
(PID.TID 0000.0001) xC =  /* xC(:,1,:,1) : P-point X coord ( deg. or m if cartesian) */
(PID.TID 0000.0001)                 6.316473190083342E+02,      /* I =  1 */
(PID.TID 0000.0001)                 1.882042669919954E+03,      /* I =  2 */
[...]
 cg2d: Sum(rhs),rhsMax =  -5.96939442321087E-11  9.95376458503830E-02
 cg2d: Sum(rhs),rhsMax =  -5.97101534882682E-11  9.96076607936078E-02
 cg2d: Sum(rhs),rhsMax =  -5.97220051190561E-11  9.96845081104735E-02
 cg2d: Sum(rhs),rhsMax =  -5.97371596633423E-11  9.97639112441197E-02
 cg2d: Sum(rhs),rhsMax =  -5.97278893010866E-11  9.98456820861499E-02
 cg2d: Sum(rhs),rhsMax =  -5.97295546356236E-11  9.99304912390788E-02
 cg2d: Sum(rhs),rhsMax =  -5.97083216202776E-11  1.00018593586166E-01
 cg2d: Sum(rhs),rhsMax =  -5.97170646265965E-11  1.00109716809190E-01
 cg2d: Sum(rhs),rhsMax =  -5.96984683909341E-11  1.00202845012952E-01
 cg2d: Sum(rhs),rhsMax =  -5.96966087673678E-11  1.00298701389567E-01
 cg2d: Sum(rhs),rhsMax =  -5.96665494789761E-11  1.00397612127155E-01
 cg2d: Sum(rhs),rhsMax =  -5.96485083548259E-11  1.00499192410459E-01
 cg2d: Sum(rhs),rhsMax =  -5.95937188485607E-11  1.00602952358884E-01
 cg2d: Sum(rhs),rhsMax =  -5.95967164507272E-11  1.00709377007823E-01
 cg2d: Sum(rhs),rhsMax =  -5.96206972680591E-11  1.00814966683811E-01
 cg2d: Sum(rhs),rhsMax =  -5.96241944705866E-11  1.00920197827074E-01
 cg2d: Sum(rhs),rhsMax =  -5.96463434199279E-11  1.01028226668965E-01
 cg2d: Sum(rhs),rhsMax =  -5.96022675658503E-11  1.01140860741770E-01
 cg2d: Sum(rhs),rhsMax =  -5.95887228449499E-11  1.01285621995297E-01
 cg2d: Sum(rhs),rhsMax =  -5.95678506520869E-11  1.01413958746336E-01
 cg2d: Sum(rhs),rhsMax =  -5.95611893139392E-11  1.01542918765930E-01
 cg2d: Sum(rhs),rhsMax =  -5.95514193513225E-11  1.01673800724027E-01
 cg2d: Sum(rhs),rhsMax =  -5.95235527534044E-11  1.01806530424200E-01
 cg2d: Sum(rhs),rhsMax =  -5.95263838221172E-11  1.01941654859521E-01
 cg2d: Sum(rhs),rhsMax =  -5.94957416666375E-11  1.02080079194938E-01
 cg2d: Sum(rhs),rhsMax =  -5.94896909511533E-11  1.02222247413713E-01
 cg2d: Sum(rhs),rhsMax =  -5.94574944834392E-11  1.02368565427840E-01
 cg2d: Sum(rhs),rhsMax =  -5.94631566208648E-11  1.02519352511099E-01
 cg2d: Sum(rhs),rhsMax =  -5.94315707758142E-11  1.02675006692810E-01
 cg2d: Sum(rhs),rhsMax =  -5.94070348469700E-11  1.02835709097164E-01
 cg2d: Sum(rhs),rhsMax =  -5.93523563630072E-11  1.03023848933929E-01
 cg2d: Sum(rhs),rhsMax =  -5.92797477771967E-11  1.03197876281826E-01
 cg2d: Sum(rhs),rhsMax =  -5.92062510129665E-11  1.03382939587602E-01
 cg2d: Sum(rhs),rhsMax =  -5.91384718973131E-11  1.03579539872233E-01
(PID.TID 0000.0001)      cg2d_init_res =   2.18123819607225E-02
(PID.TID 0000.0001)      cg2d_iters(min,last) =      -1      37
(PID.TID 0000.0001)      cg2d_last_res =   6.92511070918811E-14
(PID.TID 0000.0001) // =======================================================
(PID.TID 0000.0001) // Begin MONITOR dynamic field statistics
(PID.TID 0000.0001) // =======================================================
(PID.TID 0000.0001) %MON time_tsnumber                =                  7200
(PID.TID 0000.0001) %MON time_secondsf                =   1.0800000000000E+05
(PID.TID 0000.0001) %MON dynstat_eta_max              =   1.2376363213958E-02
(PID.TID 0000.0001) %MON dynstat_eta_min              =  -1.5572060267368E-02
(PID.TID 0000.0001) %MON dynstat_eta_mean             =   1.3518973971739E-14
(PID.TID 0000.0001) %MON dynstat_eta_sd               =   8.2489773650058E-03
(PID.TID 0000.0001) %MON dynstat_eta_del2             =   8.1039303653925E-05
(PID.TID 0000.0001) %MON dynstat_uvel_max             =   1.2962616484279E+00
(PID.TID 0000.0001) %MON dynstat_uvel_min             =  -3.6193928430127E-01
(PID.TID 0000.0001) %MON dynstat_uvel_mean            =   4.5272778179706E-01
(PID.TID 0000.0001) %MON dynstat_uvel_sd              =   1.0427844337095E-01
(PID.TID 0000.0001) %MON dynstat_uvel_del2            =   1.0953730358146E-03
(PID.TID 0000.0001) %MON dynstat_vvel_max             =   0.0000000000000E+00
(PID.TID 0000.0001) %MON dynstat_vvel_min             =   0.0000000000000E+00
(PID.TID 0000.0001) %MON dynstat_vvel_mean            =   0.0000000000000E+00
(PID.TID 0000.0001) %MON dynstat_vvel_sd              =   0.0000000000000E+00
(PID.TID 0000.0001) %MON dynstat_vvel_del2            =   0.0000000000000E+00
(PID.TID 0000.0001) %MON dynstat_wvel_max             =   4.0741834727175E-02
(PID.TID 0000.0001) %MON dynstat_wvel_min             =  -8.4927517020925E-02
(PID.TID 0000.0001) %MON dynstat_wvel_mean            =   6.3656294539465E-21
(PID.TID 0000.0001) %MON dynstat_wvel_sd              =   5.7180752975933E-03
(PID.TID 0000.0001) %MON dynstat_wvel_del2            =   1.7117205918560E-04
(PID.TID 0000.0001) %MON dynstat_theta_max            =   1.5000000000010E+01
(PID.TID 0000.0001) %MON dynstat_theta_min            =   9.9999999999983E+00
(PID.TID 0000.0001) %MON dynstat_theta_mean           =   1.1006121240656E+01
(PID.TID 0000.0001) %MON dynstat_theta_sd             =   1.8424432246165E+00
(PID.TID 0000.0001) %MON dynstat_theta_del2           =   7.7078696272830E-04
(PID.TID 0000.0001) %MON dynstat_salt_max             =   3.5000000000000E+01
(PID.TID 0000.0001) %MON dynstat_salt_min             =   3.5000000000000E+01
(PID.TID 0000.0001) %MON dynstat_salt_mean            =   3.5000000000000E+01
(PID.TID 0000.0001) %MON dynstat_salt_sd              =   4.0500935938326E-13
(PID.TID 0000.0001) %MON dynstat_salt_del2            =   0.0000000000000E+00
(PID.TID 0000.0001) %MON dynstat_sst_max              =   1.5000000000010E+01
(PID.TID 0000.0001) %MON dynstat_sst_min              =   1.4965225177727E+01
(PID.TID 0000.0001) %MON dynstat_sst_mean             =   1.4999215408868E+01
(PID.TID 0000.0001) %MON dynstat_sst_sd               =   4.1786829783056E-03
(PID.TID 0000.0001) %MON dynstat_sst_del2             =   9.2102327271411E-05
(PID.TID 0000.0001) %MON dynstat_sss_max              =   3.5000000000000E+01
(PID.TID 0000.0001) %MON dynstat_sss_min              =   3.5000000000000E+01
(PID.TID 0000.0001) %MON dynstat_sss_mean             =   3.5000000000000E+01
(PID.TID 0000.0001) %MON dynstat_sss_sd               =   4.2632564145606E-14
(PID.TID 0000.0001) %MON dynstat_sss_del2             =   0.0000000000000E+00
(PID.TID 0000.0001) %MON forcing_qnet_max             =   0.0000000000000E+00
(PID.TID 0000.0001) %MON forcing_qnet_min             =   0.0000000000000E+00
(PID.TID 0000.0001) %MON forcing_qnet_mean            =   0.0000000000000E+00
(PID.TID 0000.0001) %MON forcing_qnet_sd              =   0.0000000000000E+00
(PID.TID 0000.0001) %MON forcing_qnet_del2            =   0.0000000000000E+00
(PID.TID 0000.0001) %MON forcing_qsw_max              =   0.0000000000000E+00
(PID.TID 0000.0001) %MON forcing_qsw_min              =   0.0000000000000E+00
(PID.TID 0000.0001) %MON forcing_qsw_mean             =   0.0000000000000E+00
(PID.TID 0000.0001) %MON forcing_qsw_sd               =   0.0000000000000E+00
(PID.TID 0000.0001) %MON forcing_qsw_del2             =   0.0000000000000E+00
(PID.TID 0000.0001) %MON forcing_empmr_max            =   0.0000000000000E+00
(PID.TID 0000.0001) %MON forcing_empmr_min            =   0.0000000000000E+00
(PID.TID 0000.0001) %MON forcing_empmr_mean           =   0.0000000000000E+00
(PID.TID 0000.0001) %MON forcing_empmr_sd             =   0.0000000000000E+00
(PID.TID 0000.0001) %MON forcing_empmr_del2           =   0.0000000000000E+00
(PID.TID 0000.0001) %MON forcing_fu_max               =   0.0000000000000E+00
(PID.TID 0000.0001) %MON forcing_fu_min               =   0.0000000000000E+00
(PID.TID 0000.0001) %MON forcing_fu_mean              =   0.0000000000000E+00
(PID.TID 0000.0001) %MON forcing_fu_sd                =   0.0000000000000E+00
(PID.TID 0000.0001) %MON forcing_fu_del2              =   0.0000000000000E+00
(PID.TID 0000.0001) %MON forcing_fv_max               =   0.0000000000000E+00
(PID.TID 0000.0001) %MON forcing_fv_min               =   0.0000000000000E+00
(PID.TID 0000.0001) %MON forcing_fv_mean              =   0.0000000000000E+00
(PID.TID 0000.0001) %MON forcing_fv_sd                =   0.0000000000000E+00
(PID.TID 0000.0001) %MON forcing_fv_del2              =   0.0000000000000E+00
(PID.TID 0000.0001) %MON advcfl_uvel_max              =   9.3910144409513E-02
(PID.TID 0000.0001) %MON advcfl_vvel_max              =   0.0000000000000E+00
(PID.TID 0000.0001) %MON advcfl_wvel_max              =   5.7697190173482E-01
(PID.TID 0000.0001) %MON advcfl_W_hf_max              =   5.8324901225799E-01
(PID.TID 0000.0001) %MON pe_b_mean                    =   1.6864904443536E-06
(PID.TID 0000.0001) %MON ke_max                       =   7.5770226927323E-01
(PID.TID 0000.0001) %MON ke_mean                      =   1.0797285438148E-01
(PID.TID 0000.0001) %MON ke_vol                       =   9.6656886657870E+10
(PID.TID 0000.0001) %MON vort_r_min                   =   0.0000000000000E+00
(PID.TID 0000.0001) %MON vort_r_max                   =   0.0000000000000E+00
(PID.TID 0000.0001) %MON vort_a_mean                  =   0.0000000000000E+00
(PID.TID 0000.0001) %MON vort_a_sd                    =   0.0000000000000E+00
(PID.TID 0000.0001) %MON vort_p_mean                  =   0.0000000000000E+00
(PID.TID 0000.0001) %MON vort_p_sd                    =   0.0000000000000E+00
(PID.TID 0000.0001) %MON surfExpan_theta_mean         =   1.5334541660154E-09
(PID.TID 0000.0001) %MON surfExpan_salt_mean          =   1.8936089262711E-18
(PID.TID 0000.0001) // =======================================================
(PID.TID 0000.0001) // End MONITOR dynamic field statistics
(PID.TID 0000.0001) // =======================================================
(PID.TID 0000.0001) // =======================================================
(PID.TID 0000.0001) // Begin OBCS MONITOR field statistics
(PID.TID 0000.0001) // =======================================================
(PID.TID 0000.0001) %MON obc_E_uVel_max               =   4.4822851314926E-01
(PID.TID 0000.0001) %MON obc_E_uVel_min               =   4.4822851314926E-01
(PID.TID 0000.0001) %MON obc_E_uVel_mean              =   4.4822851314926E-01
(PID.TID 0000.0001) %MON obc_E_uVel_sd                =  -1.9428902930940E-16
(PID.TID 0000.0001) %MON obc_E_uVel_Int               =   4.4822851314926E+05
(PID.TID 0000.0001) %MON obc_W_uVel_max               =   4.4822851314926E-01
(PID.TID 0000.0001) %MON obc_W_uVel_min               =   4.4822851314926E-01
(PID.TID 0000.0001) %MON obc_W_uVel_mean              =   4.4822851314926E-01
(PID.TID 0000.0001) %MON obc_W_uVel_sd                =  -1.9428902930940E-16
(PID.TID 0000.0001) %MON obc_W_uVel_Int               =   4.4822851314926E+05
(PID.TID 0000.0001) // =======================================================
(PID.TID 0000.0001) // End OBCS MONITOR field statistics
(PID.TID 0000.0001) // =======================================================
(PID.TID 0000.0001) %CHECKPOINT      7200 0000007200
(PID.TID 0000.0001)   Seconds in section "ALL                    [THE_MODEL_MAIN]":
(PID.TID 0000.0001)           User time:   306.55000000000001
(PID.TID 0000.0001)         System time:   1.0700000000000001
(PID.TID 0000.0001)     Wall clock time:   307.74573898315430
(PID.TID 0000.0001)          No. starts:           1
(PID.TID 0000.0001)           No. stops:           1
(PID.TID 0000.0001)   Seconds in section "INITIALISE_FIXED       [THE_MODEL_MAIN]":
(PID.TID 0000.0001)           User time:   4.0000000000000001E-002
(PID.TID 0000.0001)         System time:   0.0000000000000000
(PID.TID 0000.0001)     Wall clock time:   4.6298980712890625E-002
(PID.TID 0000.0001)          No. starts:           1
(PID.TID 0000.0001)           No. stops:           1
(PID.TID 0000.0001)   Seconds in section "THE_MAIN_LOOP          [THE_MODEL_MAIN]":
(PID.TID 0000.0001)           User time:   306.50999999999999
(PID.TID 0000.0001)         System time:   1.0700000000000001
(PID.TID 0000.0001)     Wall clock time:   307.69940996170044
(PID.TID 0000.0001)          No. starts:           1
(PID.TID 0000.0001)           No. stops:           1
(PID.TID 0000.0001)   Seconds in section "INITIALISE_VARIA    [THE_MAIN_LOOP]":
(PID.TID 0000.0001)           User time:   1.0000000000000002E-002
(PID.TID 0000.0001)         System time:   2.0000000000000000E-002
(PID.TID 0000.0001)     Wall clock time:   2.7047872543334961E-002
(PID.TID 0000.0001)          No. starts:           1
(PID.TID 0000.0001)           No. stops:           1
(PID.TID 0000.0001)   Seconds in section "MAIN LOOP           [THE_MAIN_LOOP]":
(PID.TID 0000.0001)           User time:   306.50000000000000
(PID.TID 0000.0001)         System time:   1.0500000000000000
(PID.TID 0000.0001)     Wall clock time:   307.67233300209045
(PID.TID 0000.0001)          No. starts:           1
(PID.TID 0000.0001)           No. stops:           1
(PID.TID 0000.0001)   Seconds in section "MAIN_DO_LOOP        [THE_MAIN_LOOP]":
(PID.TID 0000.0001)           User time:   306.38999999999680
(PID.TID 0000.0001)         System time:   1.0499999999999983
(PID.TID 0000.0001)     Wall clock time:   307.60409402847290
(PID.TID 0000.0001)          No. starts:        7200
(PID.TID 0000.0001)           No. stops:        7200
(PID.TID 0000.0001)   Seconds in section "FORWARD_STEP        [MAIN_DO_LOOP]":
(PID.TID 0000.0001)           User time:   306.18999999999676
(PID.TID 0000.0001)         System time:   1.0499999999999983
(PID.TID 0000.0001)     Wall clock time:   307.46455216407776
(PID.TID 0000.0001)          No. starts:        7200
(PID.TID 0000.0001)           No. stops:        7200
(PID.TID 0000.0001)   Seconds in section "LOAD_FIELDS_DRIVER  [FORWARD_STEP]":
(PID.TID 0000.0001)           User time:  0.33999999999997499
(PID.TID 0000.0001)         System time:   0.0000000000000000
(PID.TID 0000.0001)     Wall clock time:  0.21043539047241211
(PID.TID 0000.0001)          No. starts:        7200
(PID.TID 0000.0001)           No. stops:        7200
(PID.TID 0000.0001)   Seconds in section "EXTERNAL_FLDS_LOAD [LOAD_FLDS_DRIVER]":
(PID.TID 0000.0001)           User time:   8.9999999999918145E-002
(PID.TID 0000.0001)         System time:   0.0000000000000000
(PID.TID 0000.0001)     Wall clock time:   6.9754123687744141E-002
(PID.TID 0000.0001)          No. starts:        7200
(PID.TID 0000.0001)           No. stops:        7200
(PID.TID 0000.0001)   Seconds in section "DO_ATMOSPHERIC_PHYS [FORWARD_STEP]":
(PID.TID 0000.0001)           User time:   5.0000000000011369E-002
(PID.TID 0000.0001)         System time:   0.0000000000000000
(PID.TID 0000.0001)     Wall clock time:   6.9957494735717773E-002
(PID.TID 0000.0001)          No. starts:        7200
(PID.TID 0000.0001)           No. stops:        7200
(PID.TID 0000.0001)   Seconds in section "DO_OCEANIC_PHYS     [FORWARD_STEP]":
(PID.TID 0000.0001)           User time:   110.46999999999838
(PID.TID 0000.0001)         System time:  0.31999999999999984
(PID.TID 0000.0001)     Wall clock time:   111.47271537780762
(PID.TID 0000.0001)          No. starts:        7200
(PID.TID 0000.0001)           No. stops:        7200
(PID.TID 0000.0001)   Seconds in section "DYNAMICS            [FORWARD_STEP]":
(PID.TID 0000.0001)           User time:   93.889999999999361
(PID.TID 0000.0001)         System time:  0.28000000000000025
(PID.TID 0000.0001)     Wall clock time:   93.792470932006836
(PID.TID 0000.0001)          No. starts:        7200
(PID.TID 0000.0001)           No. stops:        7200
(PID.TID 0000.0001)   Seconds in section "SOLVE_FOR_PRESSURE  [FORWARD_STEP]":
(PID.TID 0000.0001)           User time:   3.8299999999989041
(PID.TID 0000.0001)         System time:   1.0000000000000009E-002
(PID.TID 0000.0001)     Wall clock time:   3.4613256454467773
(PID.TID 0000.0001)          No. starts:        7200
(PID.TID 0000.0001)           No. stops:        7200
(PID.TID 0000.0001)   Seconds in section "MOM_CORRECTION_STEP [FORWARD_STEP]":
(PID.TID 0000.0001)           User time:   3.0799999999994156
(PID.TID 0000.0001)         System time:   0.0000000000000000
(PID.TID 0000.0001)     Wall clock time:   3.2594869136810303
(PID.TID 0000.0001)          No. starts:        7200
(PID.TID 0000.0001)           No. stops:        7200
(PID.TID 0000.0001)   Seconds in section "INTEGR_CONTINUITY   [FORWARD_STEP]":
(PID.TID 0000.0001)           User time:   1.6099999999995589
(PID.TID 0000.0001)         System time:   1.0000000000000009E-002
(PID.TID 0000.0001)     Wall clock time:   1.6847012042999268
(PID.TID 0000.0001)          No. starts:        7200
(PID.TID 0000.0001)           No. stops:        7200
(PID.TID 0000.0001)   Seconds in section "BLOCKING_EXCHANGES  [FORWARD_STEP]":
(PID.TID 0000.0001)           User time:   9.5699999999927172
(PID.TID 0000.0001)         System time:   2.0000000000000018E-002
(PID.TID 0000.0001)     Wall clock time:   8.9118068218231201
(PID.TID 0000.0001)          No. starts:       14400
(PID.TID 0000.0001)           No. stops:       14400
(PID.TID 0000.0001)   Seconds in section "THERMODYNAMICS      [FORWARD_STEP]":
(PID.TID 0000.0001)           User time:   81.529999999998040
(PID.TID 0000.0001)         System time:  0.39999999999999991
(PID.TID 0000.0001)     Wall clock time:   83.019063949584961
(PID.TID 0000.0001)          No. starts:        7200
(PID.TID 0000.0001)           No. stops:        7200
(PID.TID 0000.0001)   Seconds in section "TRC_CORRECTION_STEP [FORWARD_STEP]":
(PID.TID 0000.0001)           User time:   9.9999999999965894E-002
(PID.TID 0000.0001)         System time:   0.0000000000000000
(PID.TID 0000.0001)     Wall clock time:   7.1472406387329102E-002
(PID.TID 0000.0001)          No. starts:        7200
(PID.TID 0000.0001)           No. stops:        7200
(PID.TID 0000.0001)   Seconds in section "MONITOR             [FORWARD_STEP]":
(PID.TID 0000.0001)           User time:  0.13999999999987267
(PID.TID 0000.0001)         System time:   0.0000000000000000
(PID.TID 0000.0001)     Wall clock time:  0.12420773506164551
(PID.TID 0000.0001)          No. starts:        7200
(PID.TID 0000.0001)           No. stops:        7200
(PID.TID 0000.0001)   Seconds in section "DO_THE_MODEL_IO     [FORWARD_STEP]":
(PID.TID 0000.0001)           User time:  0.20999999999997954
(PID.TID 0000.0001)         System time:   1.0000000000000009E-002
(PID.TID 0000.0001)     Wall clock time:  0.21647524833679199
(PID.TID 0000.0001)          No. starts:        7200
(PID.TID 0000.0001)           No. stops:        7200
(PID.TID 0000.0001)   Seconds in section "DO_WRITE_PICKUP     [FORWARD_STEP]":
(PID.TID 0000.0001)           User time:  0.14000000000004320
(PID.TID 0000.0001)         System time:   0.0000000000000000
(PID.TID 0000.0001)     Wall clock time:  0.10625696182250977
(PID.TID 0000.0001)          No. starts:        7200
(PID.TID 0000.0001)           No. stops:        7200
(PID.TID 0000.0001) // ======================================================
(PID.TID 0000.0001) // Tile <-> Tile communication statistics
(PID.TID 0000.0001) // ======================================================
(PID.TID 0000.0001) // o Tile number: 000001
(PID.TID 0000.0001) //         No. X exchanges =              0
(PID.TID 0000.0001) //            Max. X spins =              0
(PID.TID 0000.0001) //            Min. X spins =     1000000000
(PID.TID 0000.0001) //          Total. X spins =              0
(PID.TID 0000.0001) //            Avg. X spins =       0.00E+00
(PID.TID 0000.0001) //         No. Y exchanges =              0
(PID.TID 0000.0001) //            Max. Y spins =              0
(PID.TID 0000.0001) //            Min. Y spins =     1000000000
(PID.TID 0000.0001) //          Total. Y spins =              0
(PID.TID 0000.0001) //            Avg. Y spins =       0.00E+00
(PID.TID 0000.0001) // o Thread number: 000001
(PID.TID 0000.0001) //            No. barriers =        1711368
(PID.TID 0000.0001) //      Max. barrier spins =              1
(PID.TID 0000.0001) //      Min. barrier spins =              1
(PID.TID 0000.0001) //     Total barrier spins =        1711368
(PID.TID 0000.0001) //      Avg. barrier spins =       1.00E+00
PROGRAM MAIN: Execution ended Normally
